C16H21BrCl2N2O
 OpenBabel12201215033D

 37 38  0  0  0  0  0  0  0  0999 V2000
    5.8370    1.2030   -1.8930 C   0  0  0  0  0  0  0  0  0  0  0  0
    4.7740    0.7100    0.2190 C   0  0  0  0  0  0  0  0  0  0  0  0
    7.3580    3.9600    0.6680 C   0  0  0  0  0  0  0  0  0  0  0  0
    6.7650    4.7610   -1.4970 C   0  0  0  0  0  0  0  0  0  0  0  0
    5.8780   -0.1620   -2.1910 C   0  0  0  0  0  0  0  0  0  0  0  0
    4.8140   -0.6550   -0.0760 C   0  0  0  0  0  0  0  0  0  0  0  0
    8.4790    4.7850    0.6230 C   0  0  0  0  0  0  0  0  0  0  0  0
    8.6700    5.5730   -0.5010 C   0  0  0  0  0  0  0  0  0  0  0  0
    3.8030    5.0830    0.3830 C   0  0  0  0  0  0  0  0  0  0  0  0
    3.3230    7.4120   -0.3740 C   0  0  0  0  0  0  0  0  0  0  0  0
    1.8360    5.5660   -1.1170 C   0  0  0  0  0  0  0  0  0  0  0  0
    5.2760    1.6560   -0.6900 C   0  0  0  0  0  0  0  0  0  0  0  0
    6.4680    3.9470   -0.4070 C   0  0  0  0  0  0  0  0  0  0  0  0
    5.3640   -1.0850   -1.2820 C   0  0  0  0  0  0  0  0  0  0  0  0
    5.2540    3.1090   -0.3740 C   0  0  0  0  0  0  0  0  0  0  0  0
    4.0660    3.6690   -0.0470 C   0  0  0  0  0  0  0  0  0  0  0  0
    3.2340    5.9490   -0.7180 N   0  3  0  0  0  0  0  0  0  0  0  0
    3.8310    5.8080   -1.5410 H   0  0  0  0  0  0  0  0  0  0  0  0
    5.4180   -2.9310   -1.6840 Br  0  0  0  0  0  0  0  0  0  0  0  0
    7.8340    5.5860   -1.5630 N   0  0  0  0  0  0  0  0  0  0  0  0
    3.0890    5.0990    1.2140 H   0  0  0  0  0  0  0  0  0  0  0  0
    4.7170    5.5730    0.7330 H   0  0  0  0  0  0  0  0  0  0  0  0
    3.1790    3.0360   -0.0380 H   0  0  0  0  0  0  0  0  0  0  0  0
    6.2460    1.9050   -2.6170 H   0  0  0  0  0  0  0  0  0  0  0  0
    4.3570    1.0260    1.1730 H   0  0  0  0  0  0  0  0  0  0  0  0
    4.3730    7.6560   -0.1920 H   0  0  0  0  0  0  0  0  0  0  0  0
    2.7150    7.5980    0.5150 H   0  0  0  0  0  0  0  0  0  0  0  0
    2.9540    7.9860   -1.2290 H   0  0  0  0  0  0  0  0  0  0  0  0
    1.5200    6.2290   -1.9270 H   0  0  0  0  0  0  0  0  0  0  0  0
    1.8460    4.5340   -1.4760 H   0  0  0  0  0  0  0  0  0  0  0  0
    1.1820    5.6740   -0.2470 H   0  0  0  0  0  0  0  0  0  0  0  0
    7.1860    3.3350    1.5410 H   0  0  0  0  0  0  0  0  0  0  0  0
    6.1340    4.7760   -2.3810 H   0  0  0  0  0  0  0  0  0  0  0  0
    6.3140   -0.4930   -3.1300 H   0  0  0  0  0  0  0  0  0  0  0  0
    4.4200   -1.3720    0.6400 H   0  0  0  0  0  0  0  0  0  0  0  0
    9.1860    4.8120    1.4450 H   0  0  0  0  0  0  0  0  0  0  0  0
    9.5280    6.2340   -0.5800 H   0  0  0  0  0  0  0  0  0  0  0  0
  1  5  1  0  0  0  0
  1 12  2  0  0  0  0
  1 24  1  0  0  0  0
  2  6  2  0  0  0  0
  2 12  1  0  0  0  0
  2 25  1  0  0  0  0
  3  7  2  0  0  0  0
  3 13  1  0  0  0  0
  3 32  1  0  0  0  0
  4 13  2  0  0  0  0
  4 20  1  0  0  0  0
  4 33  1  0  0  0  0
  5 14  2  0  0  0  0
  5 34  1  0  0  0  0
  6 14  1  0  0  0  0
  6 35  1  0  0  0  0
  7  8  1  0  0  0  0
  7 36  1  0  0  0  0
  8 20  2  0  0  0  0
  8 37  1  0  0  0  0
  9 16  1  0  0  0  0
  9 17  1  0  0  0  0
  9 21  1  0  0  0  0
  9 22  1  0  0  0  0
 10 17  1  0  0  0  0
 10 26  1  0  0  0  0
 10 27  1  0  0  0  0
 10 28  1  0  0  0  0
 11 17  1  0  0  0  0
 11 29  1  0  0  0  0
 11 30  1  0  0  0  0
 11 31  1  0  0  0  0
 12 15  1  0  0  0  0
 13 15  1  0  0  0  0
 14 19  1  0  0  0  0
 15 16  2  0  0  0  0
 16 23  1  0  0  0  0
 17 18  1  0  0  0  0
M  CHG  1  17   1
M  END
>  <Compound name>
Zimelidine

>  <Activity>
35

>  <ABUNDANCE>
97.73% at pH 7.4

>  <SPLIT_SET>
External

$$$$
C20H22ClN3O
 OpenBabel12201215033D

 49 51  0  0  0  0  0  0  0  0999 V2000
    7.5770    3.4740    0.9880 C   0  0  0  0  0  0  0  0  0  0  0  0
    3.9170    3.8520    0.2320 C   0  0  0  0  0  0  0  0  0  0  0  0
    2.9980    3.2850    0.1080 H   0  0  0  0  0  0  0  0  0  0  0  0
    7.2950    6.2430    0.7660 C   0  0  0  0  0  0  0  0  0  0  0  0
    8.6860    4.3090    1.1540 C   0  0  0  0  0  0  0  0  0  0  0  0
    3.8740    5.2310    0.1270 C   0  0  0  0  0  0  0  0  0  0  0  0
    4.2700   -0.4500    0.5950 C   0  0  0  0  0  0  0  0  0  0  0  0
    3.8950    0.9910   -1.2990 C   0  0  0  0  0  0  0  0  0  0  0  0
    3.1640   -0.0190   -1.9300 C   0  0  0  0  0  0  0  0  0  0  0  0
    3.3110   -2.7890    0.6870 C   0  0  0  0  0  0  0  0  0  0  0  0
    2.6810   -5.1920    0.3510 C   0  0  0  0  0  0  0  0  0  0  0  0
    4.8790   -4.3050   -0.5810 C   0  0  0  0  0  0  0  0  0  0  0  0
    2.5130   -6.2860   -0.6860 C   0  0  0  0  0  0  0  0  0  0  0  0
    5.0300   -4.4080   -2.0880 C   0  0  0  0  0  0  0  0  0  0  0  0
    5.1210    3.2100    0.5430 C   0  0  0  0  0  0  0  0  0  0  0  0
    4.4620    0.7930   -0.0330 C   0  0  0  0  0  0  0  0  0  0  0  0
    8.5400    5.6870    1.0460 C   0  0  0  0  0  0  0  0  0  0  0  0
    3.5460   -1.4810   -0.0270 C   0  0  0  0  0  0  0  0  0  0  0  0
    2.9910   -1.2400   -1.2880 C   0  0  0  0  0  0  0  0  0  0  0  0
    2.2890   -2.2540   -1.8890 O   0  0  0  0  0  0  0  0  0  0  0  0
    9.9050    6.7130    1.2520 Cl  0  0  0  0  0  0  0  0  0  0  0  0
    3.4370   -4.0110   -0.2130 N   0  3  0  0  0  0  0  0  0  0  0  0
    2.9340   -3.7000   -1.0700 H   0  0  0  0  0  0  0  0  0  0  0  0
    5.1690    1.8020    0.6510 N   0  0  0  0  0  0  0  0  0  0  0  0
    5.8170    1.4520    1.3480 H   0  0  0  0  0  0  0  0  0  0  0  0
    6.2910    3.9990    0.7160 C   0  0  0  0  0  0  0  0  0  0  0  0
    6.1810    5.4090    0.5980 C   0  0  0  0  0  0  0  0  0  0  0  0
    4.9830    5.9540    0.3120 N   0  3  0  0  0  0  0  0  0  0  0  0
    4.9130    6.9680    0.2290 H   0  0  0  0  0  0  0  0  0  0  0  0
    1.8850   -1.9000   -2.7050 H   0  0  0  0  0  0  0  0  0  0  0  0
    7.7430    2.4020    1.0620 H   0  0  0  0  0  0  0  0  0  0  0  0
    7.2040    7.3230    0.6780 H   0  0  0  0  0  0  0  0  0  0  0  0
    9.6620    3.8740    1.3630 H   0  0  0  0  0  0  0  0  0  0  0  0
    2.9660    5.7810   -0.0970 H   0  0  0  0  0  0  0  0  0  0  0  0
    4.6810   -0.6090    1.5910 H   0  0  0  0  0  0  0  0  0  0  0  0
    4.0410    1.9290   -1.8280 H   0  0  0  0  0  0  0  0  0  0  0  0
    2.7490    0.1670   -2.9170 H   0  0  0  0  0  0  0  0  0  0  0  0
    4.0060   -2.9390    1.5220 H   0  0  0  0  0  0  0  0  0  0  0  0
    2.2900   -2.7750    1.0860 H   0  0  0  0  0  0  0  0  0  0  0  0
    1.6920   -4.8310    0.6520 H   0  0  0  0  0  0  0  0  0  0  0  0
    3.2210   -5.5440    1.2360 H   0  0  0  0  0  0  0  0  0  0  0  0
    5.5110   -3.4950   -0.2010 H   0  0  0  0  0  0  0  0  0  0  0  0
    5.1800   -5.2300   -0.0800 H   0  0  0  0  0  0  0  0  0  0  0  0
    2.0520   -5.8990   -1.6010 H   0  0  0  0  0  0  0  0  0  0  0  0
    3.4690   -6.7490   -0.9460 H   0  0  0  0  0  0  0  0  0  0  0  0
    1.8660   -7.0760   -0.2920 H   0  0  0  0  0  0  0  0  0  0  0  0
    6.0660   -4.6550   -2.3420 H   0  0  0  0  0  0  0  0  0  0  0  0
    4.7870   -3.4600   -2.5760 H   0  0  0  0  0  0  0  0  0  0  0  0
    4.3880   -5.1830   -2.5130 H   0  0  0  0  0  0  0  0  0  0  0  0
  1  5  1  0  0  0  0
  1 26  2  0  0  0  0
  1 31  1  0  0  0  0
  2  3  1  0  0  0  0
  2  6  1  0  0  0  0
  2 15  2  0  0  0  0
  4 17  1  0  0  0  0
  4 27  2  0  0  0  0
  4 32  1  0  0  0  0
  5 17  2  0  0  0  0
  5 33  1  0  0  0  0
  6 28  2  0  0  0  0
  6 34  1  0  0  0  0
  7 16  1  0  0  0  0
  7 18  2  0  0  0  0
  7 35  1  0  0  0  0
  8  9  1  0  0  0  0
  8 16  2  0  0  0  0
  8 36  1  0  0  0  0
  9 19  2  0  0  0  0
  9 37  1  0  0  0  0
 10 18  1  0  0  0  0
 10 22  1  0  0  0  0
 10 38  1  0  0  0  0
 10 39  1  0  0  0  0
 11 13  1  0  0  0  0
 11 22  1  0  0  0  0
 11 40  1  0  0  0  0
 11 41  1  0  0  0  0
 12 14  1  0  0  0  0
 12 22  1  0  0  0  0
 12 42  1  0  0  0  0
 12 43  1  0  0  0  0
 13 44  1  0  0  0  0
 13 45  1  0  0  0  0
 13 46  1  0  0  0  0
 14 47  1  0  0  0  0
 14 48  1  0  0  0  0
 14 49  1  0  0  0  0
 15 24  1  0  0  0  0
 15 26  1  0  0  0  0
 16 24  1  0  0  0  0
 17 21  1  0  0  0  0
 18 19  1  0  0  0  0
 19 20  1  0  0  0  0
 20 30  1  0  0  0  0
 22 23  1  0  0  0  0
 24 25  1  0  0  0  0
 26 27  1  0  0  0  0
 27 28  1  0  0  0  0
 28 29  1  0  0  0  0
M  CHG  2  22   1  28   1
M  END
>  <Compound name>
Amodiaquine

>  <Activity>
35

>  <ABUNDANCE>
77.62% at pH 7.4

>  <SPLIT_SET>
External

$$$$
C22H19NO4
 OpenBabel12201215033D

 46 48  0  0  0  0  0  0  0  0999 V2000
    3.0990   -1.3310    1.6510 C   0  0  0  0  0  0  0  0  0  0  0  0
    3.7820   -1.0470   -0.6540 C   0  0  0  0  0  0  0  0  0  0  0  0
    5.6280    1.8150    1.4400 C   0  0  0  0  0  0  0  0  0  0  0  0
    4.8860    2.3530   -0.8000 C   0  0  0  0  0  0  0  0  0  0  0  0
    1.3300    2.6200    0.8040 C   0  0  0  0  0  0  0  0  0  0  0  0
    3.1680   -2.7170    1.5030 C   0  0  0  0  0  0  0  0  0  0  0  0
    3.8490   -2.4320   -0.8080 C   0  0  0  0  0  0  0  0  0  0  0  0
    6.8430    2.4560    1.1970 C   0  0  0  0  0  0  0  0  0  0  0  0
    6.1010    2.9940   -1.0490 C   0  0  0  0  0  0  0  0  0  0  0  0
    0.2190    3.1930    0.1920 C   0  0  0  0  0  0  0  0  0  0  0  0
    0.6670    1.8700   -1.7290 C   0  0  0  0  0  0  0  0  0  0  0  0
   -0.1230    2.8140   -1.0990 C   0  0  0  0  0  0  0  0  0  0  0  0
    2.6390   -6.7220   -0.2900 C   0  0  0  0  0  0  0  0  0  0  0  0
    9.6230    5.5850   -0.4610 C   0  0  0  0  0  0  0  0  0  0  0  0
    3.4050   -0.4760    0.5760 C   0  0  0  0  0  0  0  0  0  0  0  0
    4.6250    1.7650    0.4510 C   0  0  0  0  0  0  0  0  0  0  0  0
    2.0720    1.6640    0.1060 C   0  0  0  0  0  0  0  0  0  0  0  0
    3.5260   -3.2510    0.2690 C   0  0  0  0  0  0  0  0  0  0  0  0
    7.0580    3.0550   -0.0400 C   0  0  0  0  0  0  0  0  0  0  0  0
    1.3160   -4.7080   -0.2410 O   0  0  0  0  0  0  0  0  0  0  0  0
    7.2900    5.7350    0.1270 O   0  0  0  0  0  0  0  0  0  0  0  0
    2.4110   -5.2470   -0.1430 C   0  0  0  0  0  0  0  0  0  0  0  0
    8.2560    5.0430   -0.1680 C   0  0  0  0  0  0  0  0  0  0  0  0
    3.6310   -4.6340    0.1160 O   0  0  0  0  0  0  0  0  0  0  0  0
    8.2910    3.6590   -0.2890 O   0  0  0  0  0  0  0  0  0  0  0  0
    3.3100    1.0410    0.7600 C   0  0  1  0  0  0  0  0  0  0  0  0
    1.7530    1.2970   -1.1640 N   0  0  0  0  0  0  0  0  0  0  0  0
    3.1560    1.1960    1.8400 H   0  0  0  0  0  0  0  0  0  0  0  0
    2.8000   -0.9240    2.6150 H   0  0  0  0  0  0  0  0  0  0  0  0
    4.0110   -0.4120   -1.5070 H   0  0  0  0  0  0  0  0  0  0  0  0
    5.4670    1.3480    2.4100 H   0  0  0  0  0  0  0  0  0  0  0  0
    4.1480    2.3140   -1.5980 H   0  0  0  0  0  0  0  0  0  0  0  0
    1.6060    2.9230    1.8100 H   0  0  0  0  0  0  0  0  0  0  0  0
    2.9350   -3.3680    2.3400 H   0  0  0  0  0  0  0  0  0  0  0  0
    4.1410   -2.8620   -1.7610 H   0  0  0  0  0  0  0  0  0  0  0  0
    7.6100    2.4860    1.9650 H   0  0  0  0  0  0  0  0  0  0  0  0
    6.2910    3.4410   -2.0200 H   0  0  0  0  0  0  0  0  0  0  0  0
   -0.3770    3.9320    0.7210 H   0  0  0  0  0  0  0  0  0  0  0  0
    0.4440    1.5390   -2.7380 H   0  0  0  0  0  0  0  0  0  0  0  0
   -0.9820    3.2450   -1.6000 H   0  0  0  0  0  0  0  0  0  0  0  0
    1.6850   -7.2170   -0.4960 H   0  0  0  0  0  0  0  0  0  0  0  0
    3.3160   -6.9110   -1.1260 H   0  0  0  0  0  0  0  0  0  0  0  0
    3.0480   -7.1280    0.6390 H   0  0  0  0  0  0  0  0  0  0  0  0
    9.9130    5.3270   -1.4820 H   0  0  0  0  0  0  0  0  0  0  0  0
   10.3420    5.1850    0.2580 H   0  0  0  0  0  0  0  0  0  0  0  0
    9.6070    6.6750   -0.3680 H   0  0  0  0  0  0  0  0  0  0  0  0
  1  6  1  0  0  0  0
  1 15  2  0  0  0  0
  1 29  1  0  0  0  0
  2  7  2  0  0  0  0
  2 15  1  0  0  0  0
  2 30  1  0  0  0  0
  3  8  1  0  0  0  0
  3 16  2  0  0  0  0
  3 31  1  0  0  0  0
  4  9  2  0  0  0  0
  4 16  1  0  0  0  0
  4 32  1  0  0  0  0
  5 10  2  0  0  0  0
  5 17  1  0  0  0  0
  5 33  1  0  0  0  0
  6 18  2  0  0  0  0
  6 34  1  0  0  0  0
  7 18  1  0  0  0  0
  7 35  1  0  0  0  0
  8 19  2  0  0  0  0
  8 36  1  0  0  0  0
  9 19  1  0  0  0  0
  9 37  1  0  0  0  0
 10 12  1  0  0  0  0
 10 38  1  0  0  0  0
 11 12  2  0  0  0  0
 11 27  1  0  0  0  0
 11 39  1  0  0  0  0
 12 40  1  0  0  0  0
 13 22  1  0  0  0  0
 13 41  1  0  0  0  0
 13 42  1  0  0  0  0
 13 43  1  0  0  0  0
 14 23  1  0  0  0  0
 14 44  1  0  0  0  0
 14 45  1  0  0  0  0
 14 46  1  0  0  0  0
 15 26  1  0  0  0  0
 16 26  1  0  0  0  0
 17 26  1  0  0  0  0
 17 27  2  0  0  0  0
 18 24  1  0  0  0  0
 19 25  1  0  0  0  0
 20 22  2  0  0  0  0
 21 23  2  0  0  0  0
 22 24  1  0  0  0  0
 23 25  1  0  0  0  0
 26 28  1  1  0  0  0
M  END
>  <Compound name>
Bisacodyl

>  <Activity>
10

>  <ABUNDANCE>
99.87% at pH 7.4

>  <SPLIT_SET>
External

$$$$
C16H19ClN2O
 OpenBabel12201215033D

 40 41  0  0  0  0  0  0  0  0999 V2000
    3.6110   -2.4600   -1.1700 C   0  0  0  0  0  0  0  0  0  0  0  0
    3.9490   -1.7810    1.1270 C   0  0  0  0  0  0  0  0  0  0  0  0
    4.1250   -1.0050    1.8710 H   0  0  0  0  0  0  0  0  0  0  0  0
    6.4960    0.1980   -0.9710 C   0  0  0  0  0  0  0  0  0  0  0  0
    3.4690   -3.7850   -0.7540 C   0  0  0  0  0  0  0  0  0  0  0  0
    3.8120   -3.1060    1.5420 C   0  0  0  0  0  0  0  0  0  0  0  0
    7.7190    0.7540   -0.6080 C   0  0  0  0  0  0  0  0  0  0  0  0
    6.5770    2.0650    1.0130 C   0  0  0  0  0  0  0  0  0  0  0  0
    7.7660    1.7050    0.4040 C   0  0  0  0  0  0  0  0  0  0  0  0
    8.7070    2.1480    0.7110 H   0  0  0  0  0  0  0  0  0  0  0  0
    2.5270    1.8890   -0.8210 C   0  0  0  0  0  0  0  0  0  0  0  0
    1.5130    2.6490    0.0310 C   0  0  0  0  0  0  0  0  0  0  0  0
    1.9550    2.9860    0.9760 H   0  0  0  0  0  0  0  0  0  0  0  0
    0.6690    1.9910    0.2710 H   0  0  0  0  0  0  0  0  0  0  0  0
   -0.2510    4.4040    0.0500 C   0  0  0  0  0  0  0  0  0  0  0  0
    1.9680    4.9440   -0.9190 C   0  0  0  0  0  0  0  0  0  0  0  0
    1.4630    5.7870   -1.3990 H   0  0  0  0  0  0  0  0  0  0  0  0
    2.7370    4.5560   -1.5890 H   0  0  0  0  0  0  0  0  0  0  0  0
    2.3920    5.2410    0.0440 H   0  0  0  0  0  0  0  0  0  0  0  0
    3.8550   -1.4420   -0.2340 C   0  0  0  0  0  0  0  0  0  0  0  0
    5.3400    0.6150   -0.3070 C   0  0  0  0  0  0  0  0  0  0  0  0
    3.5730   -4.1030    0.5990 C   0  0  0  0  0  0  0  0  0  0  0  0
    2.8760    0.7030   -0.1120 O   0  0  0  0  0  0  0  0  0  0  0  0
    3.9920    0.0010   -0.6870 C   0  0  2  0  0  0  0  0  0  0  0  0
    3.3990   -5.7370    1.1090 Cl  0  0  0  0  0  0  0  0  0  0  0  0
    0.9490    3.8600   -0.6840 N   0  3  0  0  0  0  0  0  0  0  0  0
    0.6040    3.5570   -1.6050 H   0  0  0  0  0  0  0  0  0  0  0  0
    5.3720    1.5500    0.6810 N   0  0  0  0  0  0  0  0  0  0  0  0
    3.8960    0.0450   -1.7810 H   0  0  0  0  0  0  0  0  0  0  0  0
    3.5220   -2.2300   -2.2300 H   0  0  0  0  0  0  0  0  0  0  0  0
    6.4560   -0.5540   -1.7540 H   0  0  0  0  0  0  0  0  0  0  0  0
    3.4150    2.5020   -1.0000 H   0  0  0  0  0  0  0  0  0  0  0  0
    2.0870    1.6110   -1.7860 H   0  0  0  0  0  0  0  0  0  0  0  0
    3.2770   -4.5620   -1.4900 H   0  0  0  0  0  0  0  0  0  0  0  0
    3.8900   -3.3520    2.5980 H   0  0  0  0  0  0  0  0  0  0  0  0
    8.6320    0.4420   -1.1070 H   0  0  0  0  0  0  0  0  0  0  0  0
    6.5610    2.8000    1.8120 H   0  0  0  0  0  0  0  0  0  0  0  0
   -0.6580    5.2350   -0.5320 H   0  0  0  0  0  0  0  0  0  0  0  0
   -0.9940    3.6060    0.1240 H   0  0  0  0  0  0  0  0  0  0  0  0
    0.0690    4.7380    1.0410 H   0  0  0  0  0  0  0  0  0  0  0  0
  1  5  1  0  0  0  0
  1 20  2  0  0  0  0
  1 30  1  0  0  0  0
  2  3  1  0  0  0  0
  2  6  2  0  0  0  0
  2 20  1  0  0  0  0
  4  7  2  0  0  0  0
  4 21  1  0  0  0  0
  4 31  1  0  0  0  0
  5 22  2  0  0  0  0
  5 34  1  0  0  0  0
  6 22  1  0  0  0  0
  6 35  1  0  0  0  0
  7  9  1  0  0  0  0
  7 36  1  0  0  0  0
  8  9  2  0  0  0  0
  8 28  1  0  0  0  0
  8 37  1  0  0  0  0
  9 10  1  0  0  0  0
 11 12  1  0  0  0  0
 11 23  1  0  0  0  0
 11 32  1  0  0  0  0
 11 33  1  0  0  0  0
 12 13  1  0  0  0  0
 12 14  1  0  0  0  0
 12 26  1  0  0  0  0
 15 26  1  0  0  0  0
 15 38  1  0  0  0  0
 15 39  1  0  0  0  0
 15 40  1  0  0  0  0
 16 17  1  0  0  0  0
 16 18  1  0  0  0  0
 16 19  1  0  0  0  0
 16 26  1  0  0  0  0
 20 24  1  0  0  0  0
 21 24  1  0  0  0  0
 21 28  2  0  0  0  0
 22 25  1  0  0  0  0
 23 24  1  0  0  0  0
 24 29  1  6  0  0  0
 26 27  1  0  0  0  0
M  CHG  1  26   1
M  END
>  <Compound name>
Carbinoxamine

>  <Activity>
10

>  <ABUNDANCE>
95.13% at pH 7.4

>  <SPLIT_SET>
External

$$$$
C18H26ClN3
 OpenBabel12201215033D

 50 51  0  0  0  0  0  0  0  0999 V2000
    7.2130    1.9620   -0.1180 C   0  0  0  0  0  0  0  0  0  0  0  0
    8.2290    4.5090    0.3750 C   0  0  0  0  0  0  0  0  0  0  0  0
    4.1950    3.7960    1.1540 C   0  0  0  0  0  0  0  0  0  0  0  0
    8.5650    2.2350   -0.3510 C   0  0  0  0  0  0  0  0  0  0  0  0
    4.7920    5.0190    1.4020 C   0  0  0  0  0  0  0  0  0  0  0  0
    4.3940   -0.5510   -0.9160 C   0  0  0  0  0  0  0  0  0  0  0  0
    3.2270   -1.3240   -0.2860 C   0  0  0  0  0  0  0  0  0  0  0  0
    2.3250   -1.1990   -0.8950 H   0  0  0  0  0  0  0  0  0  0  0  0
    3.0100   -0.9190    0.7070 H   0  0  0  0  0  0  0  0  0  0  0  0
    3.5650   -2.8130   -0.1880 C   0  0  0  0  0  0  0  0  0  0  0  0
    4.4060   -3.0090    0.4860 H   0  0  0  0  0  0  0  0  0  0  0  0
    3.8080   -3.1980   -1.1850 H   0  0  0  0  0  0  0  0  0  0  0  0
    2.5520   -5.0900    0.0310 C   0  0  0  0  0  0  0  0  0  0  0  0
    2.9310   -5.1810   -0.9930 H   0  0  0  0  0  0  0  0  0  0  0  0
    3.2990   -5.4800    0.7290 H   0  0  0  0  0  0  0  0  0  0  0  0
    2.0470   -3.3310    1.7810 C   0  0  0  0  0  0  0  0  0  0  0  0
    2.0780   -4.2750    2.3340 H   0  0  0  0  0  0  0  0  0  0  0  0
    2.8230   -2.6790    2.1960 H   0  0  0  0  0  0  0  0  0  0  0  0
    2.9060    1.3690   -1.7160 C   0  0  0  0  0  0  0  0  0  0  0  0
    2.8130    0.8710   -2.6860 H   0  0  0  0  0  0  0  0  0  0  0  0
    2.8750    2.4500   -1.8890 H   0  0  0  0  0  0  0  0  0  0  0  0
    2.0290    1.1170   -1.1100 H   0  0  0  0  0  0  0  0  0  0  0  0
    1.2230   -5.8190    0.1340 C   0  0  0  0  0  0  0  0  0  0  0  0
    0.4780   -5.3790   -0.5370 H   0  0  0  0  0  0  0  0  0  0  0  0
    0.8220   -5.8010    1.1510 H   0  0  0  0  0  0  0  0  0  0  0  0
    1.3520   -6.8680   -0.1500 H   0  0  0  0  0  0  0  0  0  0  0  0
    0.6790   -2.6850    1.8840 C   0  0  0  0  0  0  0  0  0  0  0  0
    4.9380    2.7470    0.6000 C   0  0  0  0  0  0  0  0  0  0  0  0
    9.0630    3.5090   -0.1110 C   0  0  0  0  0  0  0  0  0  0  0  0
    4.2110    0.9750   -1.0230 C   0  0  2  0  0  0  0  0  0  0  0  0
    5.0290    1.3580   -1.6450 H   0  0  0  0  0  0  0  0  0  0  0  0
   10.7250    3.8470   -0.3970 Cl  0  0  0  0  0  0  0  0  0  0  0  0
    2.3720   -3.6060    0.3180 N   0  3  0  0  0  0  0  0  0  0  0  0
    1.5680   -3.3120   -0.2540 H   0  0  0  0  0  0  0  0  0  0  0  0
    4.2420    1.5840    0.3020 N   0  0  0  0  0  0  0  0  0  0  0  0
    6.3200    2.9550    0.3460 C   0  0  0  0  0  0  0  0  0  0  0  0
    6.8730    4.2350    0.6130 C   0  0  0  0  0  0  0  0  0  0  0  0
    6.0860    5.2030    1.1190 N   0  3  0  0  0  0  0  0  0  0  0  0
    6.4930    6.1190    1.3080 H   0  0  0  0  0  0  0  0  0  0  0  0
    3.6600    1.1880    1.0330 H   0  0  0  0  0  0  0  0  0  0  0  0
    6.8690    0.9460   -0.2870 H   0  0  0  0  0  0  0  0  0  0  0  0
    8.6420    5.4950    0.5730 H   0  0  0  0  0  0  0  0  0  0  0  0
    3.1350    3.6690    1.3610 H   0  0  0  0  0  0  0  0  0  0  0  0
    9.2190    1.4450   -0.7130 H   0  0  0  0  0  0  0  0  0  0  0  0
    4.2580    5.8690    1.8130 H   0  0  0  0  0  0  0  0  0  0  0  0
    4.5640   -0.9460   -1.9260 H   0  0  0  0  0  0  0  0  0  0  0  0
    5.3060   -0.7650   -0.3440 H   0  0  0  0  0  0  0  0  0  0  0  0
    0.6440   -1.7360    1.3400 H   0  0  0  0  0  0  0  0  0  0  0  0
   -0.1010   -3.3380    1.4790 H   0  0  0  0  0  0  0  0  0  0  0  0
    0.4370   -2.4810    2.9320 H   0  0  0  0  0  0  0  0  0  0  0  0
  1  4  1  0  0  0  0
  1 36  2  0  0  0  0
  1 41  1  0  0  0  0
  2 29  1  0  0  0  0
  2 37  2  0  0  0  0
  2 42  1  0  0  0  0
  3  5  1  0  0  0  0
  3 28  2  0  0  0  0
  3 43  1  0  0  0  0
  4 29  2  0  0  0  0
  4 44  1  0  0  0  0
  5 38  2  0  0  0  0
  5 45  1  0  0  0  0
  6  7  1  0  0  0  0
  6 30  1  0  0  0  0
  6 46  1  0  0  0  0
  6 47  1  0  0  0  0
  7  8  1  0  0  0  0
  7  9  1  0  0  0  0
  7 10  1  0  0  0  0
 10 11  1  0  0  0  0
 10 12  1  0  0  0  0
 10 33  1  0  0  0  0
 13 14  1  0  0  0  0
 13 15  1  0  0  0  0
 13 23  1  0  0  0  0
 13 33  1  0  0  0  0
 16 17  1  0  0  0  0
 16 18  1  0  0  0  0
 16 27  1  0  0  0  0
 16 33  1  0  0  0  0
 19 20  1  0  0  0  0
 19 21  1  0  0  0  0
 19 22  1  0  0  0  0
 19 30  1  0  0  0  0
 23 24  1  0  0  0  0
 23 25  1  0  0  0  0
 23 26  1  0  0  0  0
 27 48  1  0  0  0  0
 27 49  1  0  0  0  0
 27 50  1  0  0  0  0
 28 35  1  0  0  0  0
 28 36  1  0  0  0  0
 29 32  1  0  0  0  0
 30 31  1  6  0  0  0
 30 35  1  0  0  0  0
 33 34  1  0  0  0  0
 35 40  1  0  0  0  0
 36 37  1  0  0  0  0
 37 38  1  0  0  0  0
 38 39  1  0  0  0  0
M  CHG  2  33   1  38   1
M  END
>  <Compound name>
Chloroquine

>  <Activity>
35

>  <ABUNDANCE>
68.17% at pH 7.4

>  <SPLIT_SET>
External

$$$$
C9H5ClINO
 OpenBabel12201215033D

 18 19  0  0  0  0  0  0  0  0999 V2000
    1.4810    0.8170   -0.0210 C   0  0  0  0  0  0  0  0  0  0  0  0
    5.1740    1.5520   -0.0060 C   0  0  0  0  0  0  0  0  0  0  0  0
    6.3010   -0.5250   -0.0120 C   0  0  0  0  0  0  0  0  0  0  0  0
    6.3710    0.8490   -0.0050 C   0  0  0  0  0  0  0  0  0  0  0  0
    2.7520   -1.2340   -0.0270 C   0  0  0  0  0  0  0  0  0  0  0  0
    1.5200   -0.5700   -0.0280 C   0  0  0  0  0  0  0  0  0  0  0  0
    2.6770    1.5350   -0.0140 C   0  0  0  0  0  0  0  0  0  0  0  0
    2.7950   -2.6120   -0.0340 O   0  0  0  0  0  0  0  0  0  0  0  0
    2.5480    3.2640   -0.0060 Cl  0  0  0  0  0  0  0  0  0  0  0  0
    3.9700   -0.5380   -0.0200 C   0  0  0  0  0  0  0  0  0  0  0  0
    3.9330    0.8760   -0.0130 C   0  0  0  0  0  0  0  0  0  0  0  0
   -0.2890   -1.6170   -0.0390 I   0  0  0  0  0  0  0  0  0  0  0  0
    5.1420   -1.2140   -0.0190 N   0  0  0  0  0  0  0  0  0  0  0  0
    1.8830   -2.9480   -0.0380 H   0  0  0  0  0  0  0  0  0  0  0  0
    0.5320    1.3480   -0.0220 H   0  0  0  0  0  0  0  0  0  0  0  0
    5.2210    2.6390    0.0000 H   0  0  0  0  0  0  0  0  0  0  0  0
    7.2000   -1.1340   -0.0120 H   0  0  0  0  0  0  0  0  0  0  0  0
    7.3250    1.3630    0.0000 H   0  0  0  0  0  0  0  0  0  0  0  0
  1  6  1  0  0  0  0
  1  7  2  0  0  0  0
  1 15  1  0  0  0  0
  2  4  1  0  0  0  0
  2 11  2  0  0  0  0
  2 16  1  0  0  0  0
  3  4  2  0  0  0  0
  3 13  1  0  0  0  0
  3 17  1  0  0  0  0
  4 18  1  0  0  0  0
  5  6  2  0  0  0  0
  5  8  1  0  0  0  0
  5 10  1  0  0  0  0
  6 12  1  0  0  0  0
  7  9  1  0  0  0  0
  7 11  1  0  0  0  0
  8 14  1  0  0  0  0
 10 11  1  0  0  0  0
 10 13  2  0  0  0  0
M  END
>  <Compound name>
Clioquinol

>  <Activity>
10

>  <ABUNDANCE>
62.32% at pH 7.4

>  <SPLIT_SET>
External

$$$$
C21H29N3O
 OpenBabel12201215033D

 55 56  0  0  0  0  0  0  0  0999 V2000
    5.4550   -0.6720   -2.6440 C   0  0  0  0  0  0  0  0  0  0  0  0
    5.7380   -2.4150   -1.0050 C   0  0  0  0  0  0  0  0  0  0  0  0
    6.2290    2.5930   -0.0990 C   0  0  0  0  0  0  0  0  0  0  0  0
    5.1810   -1.6360   -3.6190 C   0  0  0  0  0  0  0  0  0  0  0  0
    5.4630   -3.3770   -1.9810 C   0  0  0  0  0  0  0  0  0  0  0  0
    6.8230    3.7660   -0.5640 C   0  0  0  0  0  0  0  0  0  0  0  0
    8.0440    2.4690   -2.1250 C   0  0  0  0  0  0  0  0  0  0  0  0
    5.1870   -2.9870   -3.2880 C   0  0  0  0  0  0  0  0  0  0  0  0
    7.7430    3.7100   -1.6000 C   0  0  0  0  0  0  0  0  0  0  0  0
    4.6450    0.1270    0.5880 C   0  0  0  0  0  0  0  0  0  0  0  0
    3.4450    0.5990   -0.2440 C   0  0  0  0  0  0  0  0  0  0  0  0
    0.2410    2.1410    1.3440 C   0  0  0  0  0  0  0  0  0  0  0  0
    0.8320    1.9640   -1.1130 C   0  0  0  0  0  0  0  0  0  0  0  0
    0.5080   -1.0530   -0.2430 C   0  0  0  0  0  0  0  0  0  0  0  0
    1.0040   -0.8850    2.2390 C   0  0  0  0  0  0  0  0  0  0  0  0
    5.7550   -1.0400   -1.3180 C   0  0  0  0  0  0  0  0  0  0  0  0
    6.5540    1.3740   -0.6990 C   0  0  0  0  0  0  0  0  0  0  0  0
    6.8170   -0.8510    1.9580 O   0  0  0  0  0  0  0  0  0  0  0  0
    7.0750   -0.5210    0.8020 C   0  0  0  0  0  0  0  0  0  0  0  0
    1.3470    1.9180    0.3230 C   0  0  0  0  0  0  0  0  0  0  0  0
    2.0550    2.7490    0.4450 H   0  0  0  0  0  0  0  0  0  0  0  0
    1.5390   -0.7130    0.8200 C   0  0  0  0  0  0  0  0  0  0  0  0
    2.3580   -1.4340    0.7150 H   0  0  0  0  0  0  0  0  0  0  0  0
    6.0000    0.0180   -0.2010 C   0  0  1  0  0  0  0  0  0  0  0  0
    2.1860    0.6730    0.6430 N   0  3  0  0  0  0  0  0  0  0  0  0
    2.5540    0.8920    1.5780 H   0  0  0  0  0  0  0  0  0  0  0  0
    8.3480   -0.6370    0.3090 N   0  0  0  0  0  0  0  0  0  0  0  0
    7.4860    1.3150   -1.6930 N   0  0  0  0  0  0  0  0  0  0  0  0
    9.0840   -1.0130    0.8920 H   0  0  0  0  0  0  0  0  0  0  0  0
    8.5720   -0.3350   -0.6380 H   0  0  0  0  0  0  0  0  0  0  0  0
    4.7670    0.7870    1.4570 H   0  0  0  0  0  0  0  0  0  0  0  0
    4.4090   -0.8530    1.0230 H   0  0  0  0  0  0  0  0  0  0  0  0
    5.4320    0.3720   -2.9470 H   0  0  0  0  0  0  0  0  0  0  0  0
    5.9340   -2.7640    0.0070 H   0  0  0  0  0  0  0  0  0  0  0  0
    5.5450    2.6680    0.7380 H   0  0  0  0  0  0  0  0  0  0  0  0
    3.2000   -0.0640   -1.0770 H   0  0  0  0  0  0  0  0  0  0  0  0
    3.6300    1.6040   -0.6340 H   0  0  0  0  0  0  0  0  0  0  0  0
    4.9650   -1.3290   -4.6390 H   0  0  0  0  0  0  0  0  0  0  0  0
    5.4650   -4.4320   -1.7190 H   0  0  0  0  0  0  0  0  0  0  0  0
    6.5770    4.7220   -0.1070 H   0  0  0  0  0  0  0  0  0  0  0  0
    8.7670    2.3620   -2.9280 H   0  0  0  0  0  0  0  0  0  0  0  0
    4.9770   -3.7360   -4.0470 H   0  0  0  0  0  0  0  0  0  0  0  0
    8.2230    4.6060   -1.9760 H   0  0  0  0  0  0  0  0  0  0  0  0
   -0.5800    1.4290    1.2250 H   0  0  0  0  0  0  0  0  0  0  0  0
    0.6230    2.0770    2.3680 H   0  0  0  0  0  0  0  0  0  0  0  0
   -0.1880    3.1420    1.2180 H   0  0  0  0  0  0  0  0  0  0  0  0
   -0.0390    1.3250   -1.2710 H   0  0  0  0  0  0  0  0  0  0  0  0
    1.5970    1.6920   -1.8450 H   0  0  0  0  0  0  0  0  0  0  0  0
    0.5090    2.9840   -1.3520 H   0  0  0  0  0  0  0  0  0  0  0  0
    0.8970   -0.8900   -1.2520 H   0  0  0  0  0  0  0  0  0  0  0  0
   -0.4190   -0.4890   -0.1140 H   0  0  0  0  0  0  0  0  0  0  0  0
    0.2380   -2.1130   -0.1720 H   0  0  0  0  0  0  0  0  0  0  0  0
    1.7510   -0.5980    2.9860 H   0  0  0  0  0  0  0  0  0  0  0  0
    0.0940   -0.3100    2.4210 H   0  0  0  0  0  0  0  0  0  0  0  0
    0.7530   -1.9370    2.4170 H   0  0  0  0  0  0  0  0  0  0  0  0
  1  4  1  0  0  0  0
  1 16  2  0  0  0  0
  1 33  1  0  0  0  0
  2  5  2  0  0  0  0
  2 16  1  0  0  0  0
  2 34  1  0  0  0  0
  3  6  2  0  0  0  0
  3 17  1  0  0  0  0
  3 35  1  0  0  0  0
  4  8  2  0  0  0  0
  4 38  1  0  0  0  0
  5  8  1  0  0  0  0
  5 39  1  0  0  0  0
  6  9  1  0  0  0  0
  6 40  1  0  0  0  0
  7  9  2  0  0  0  0
  7 28  1  0  0  0  0
  7 41  1  0  0  0  0
  8 42  1  0  0  0  0
  9 43  1  0  0  0  0
 10 11  1  0  0  0  0
 10 31  1  0  0  0  0
 10 32  1  0  0  0  0
 11 25  1  0  0  0  0
 11 36  1  0  0  0  0
 11 37  1  0  0  0  0
 12 20  1  0  0  0  0
 12 44  1  0  0  0  0
 12 45  1  0  0  0  0
 12 46  1  0  0  0  0
 13 20  1  0  0  0  0
 13 47  1  0  0  0  0
 13 48  1  0  0  0  0
 13 49  1  0  0  0  0
 14 22  1  0  0  0  0
 14 50  1  0  0  0  0
 14 51  1  0  0  0  0
 14 52  1  0  0  0  0
 15 22  1  0  0  0  0
 15 53  1  0  0  0  0
 15 54  1  0  0  0  0
 15 55  1  0  0  0  0
 16 24  1  0  0  0  0
 17 24  1  0  0  0  0
 17 28  2  0  0  0  0
 18 19  2  0  0  0  0
 19 24  1  0  0  0  0
 19 27  1  0  0  0  0
 20 21  1  0  0  0  0
 20 25  1  0  0  0  0
 22 23  1  0  0  0  0
 22 25  1  0  0  0  0
 24 10  1  1  0  0  0
 25 26  1  0  0  0  0
 27 29  1  0  0  0  0
 27 30  1  0  0  0  0
M  CHG  1  25   1
M  END
>  <Compound name>
Disopyramide

>  <Activity>
10

>  <ABUNDANCE>
99.43% at pH 7.4

>  <SPLIT_SET>
External

$$$$
C17H22N2O
 OpenBabel12201215033D

 43 44  0  0  0  0  0  0  0  0999 V2000
    0.2600   -1.2230    0.8350 C   0  0  0  0  0  0  0  0  0  0  0  0
    2.2920   -2.4740    1.1750 C   0  0  0  0  0  0  0  0  0  0  0  0
    2.6930    1.3490    1.7400 C   0  0  0  0  0  0  0  0  0  0  0  0
   -0.4500   -2.1790    1.5640 C   0  0  0  0  0  0  0  0  0  0  0  0
    1.5790   -3.4300    1.9040 C   0  0  0  0  0  0  0  0  0  0  0  0
    2.5200    2.6140    2.2950 C   0  0  0  0  0  0  0  0  0  0  0  0
    2.8650    2.8210    3.3040 H   0  0  0  0  0  0  0  0  0  0  0  0
    1.4720    3.2900    0.2720 C   0  0  0  0  0  0  0  0  0  0  0  0
    0.9770    4.0310   -0.3490 H   0  0  0  0  0  0  0  0  0  0  0  0
    0.2090   -3.2830    2.0970 C   0  0  0  0  0  0  0  0  0  0  0  0
   -0.3450   -4.0260    2.6640 H   0  0  0  0  0  0  0  0  0  0  0  0
    1.8970    3.6070    1.5500 C   0  0  0  0  0  0  0  0  0  0  0  0
    1.7450    4.6000    1.9580 H   0  0  0  0  0  0  0  0  0  0  0  0
    4.7020    0.1440   -0.9830 C   0  0  0  0  0  0  0  0  0  0  0  0
    6.1510   -0.2570   -0.6850 C   0  0  0  0  0  0  0  0  0  0  0  0
    1.8930   -0.3600   -1.6470 C   0  0  0  0  0  0  0  0  0  0  0  0
    8.0370   -1.7950   -1.2430 C   0  0  0  0  0  0  0  0  0  0  0  0
    8.3000   -2.6650   -1.8500 H   0  0  0  0  0  0  0  0  0  0  0  0
    8.2370   -1.9780   -0.1840 H   0  0  0  0  0  0  0  0  0  0  0  0
    8.5820   -0.9180   -1.6010 H   0  0  0  0  0  0  0  0  0  0  0  0
    5.7540   -2.7430   -1.0290 C   0  0  0  0  0  0  0  0  0  0  0  0
    6.1960   -3.6170   -1.5160 H   0  0  0  0  0  0  0  0  0  0  0  0
    4.7360   -2.6120   -1.4010 H   0  0  0  0  0  0  0  0  0  0  0  0
    5.7810   -2.8510    0.0580 H   0  0  0  0  0  0  0  0  0  0  0  0
    1.6480   -1.3530    0.6220 C   0  0  0  0  0  0  0  0  0  0  0  0
    2.2330    1.1050    0.4410 C   0  0  0  0  0  0  0  0  0  0  0  0
    3.8260   -0.6410   -0.1720 O   0  0  0  0  0  0  0  0  0  0  0  0
    2.4160   -0.2860   -0.1930 C   0  0  2  0  0  0  0  0  0  0  0  0
    6.5620   -1.5330   -1.4140 N   0  3  0  0  0  0  0  0  0  0  0  0
    6.4110   -1.3800   -2.4200 H   0  0  0  0  0  0  0  0  0  0  0  0
    1.6280    2.0730   -0.2960 N   0  0  0  0  0  0  0  0  0  0  0  0
    2.3550    0.3980   -2.2900 H   0  0  0  0  0  0  0  0  0  0  0  0
    2.1250   -1.3350   -2.0930 H   0  0  0  0  0  0  0  0  0  0  0  0
    0.8100   -0.2060   -1.7150 H   0  0  0  0  0  0  0  0  0  0  0  0
   -0.2830   -0.3680    0.4350 H   0  0  0  0  0  0  0  0  0  0  0  0
    3.3610   -2.6180    1.0510 H   0  0  0  0  0  0  0  0  0  0  0  0
    3.1760    0.5650    2.3160 H   0  0  0  0  0  0  0  0  0  0  0  0
    4.4870   -0.0060   -2.0450 H   0  0  0  0  0  0  0  0  0  0  0  0
    4.5820    1.2040   -0.7400 H   0  0  0  0  0  0  0  0  0  0  0  0
   -1.5190   -2.0590    1.7160 H   0  0  0  0  0  0  0  0  0  0  0  0
    2.0950   -4.2900    2.3240 H   0  0  0  0  0  0  0  0  0  0  0  0
    6.3170   -0.4290    0.3840 H   0  0  0  0  0  0  0  0  0  0  0  0
    6.8260    0.5250   -1.0480 H   0  0  0  0  0  0  0  0  0  0  0  0
  1  4  1  0  0  0  0
  1 25  2  0  0  0  0
  1 35  1  0  0  0  0
  2  5  2  0  0  0  0
  2 25  1  0  0  0  0
  2 36  1  0  0  0  0
  3  6  2  0  0  0  0
  3 26  1  0  0  0  0
  3 37  1  0  0  0  0
  4 10  2  0  0  0  0
  4 40  1  0  0  0  0
  5 10  1  0  0  0  0
  5 41  1  0  0  0  0
  6  7  1  0  0  0  0
  6 12  1  0  0  0  0
  8  9  1  0  0  0  0
  8 12  2  0  0  0  0
  8 31  1  0  0  0  0
 10 11  1  0  0  0  0
 12 13  1  0  0  0  0
 14 15  1  0  0  0  0
 14 27  1  0  0  0  0
 14 38  1  0  0  0  0
 14 39  1  0  0  0  0
 15 29  1  0  0  0  0
 15 42  1  0  0  0  0
 15 43  1  0  0  0  0
 16 32  1  0  0  0  0
 16 33  1  0  0  0  0
 16 34  1  0  0  0  0
 17 18  1  0  0  0  0
 17 19  1  0  0  0  0
 17 20  1  0  0  0  0
 17 29  1  0  0  0  0
 21 22  1  0  0  0  0
 21 23  1  0  0  0  0
 21 24  1  0  0  0  0
 21 29  1  0  0  0  0
 25 28  1  0  0  0  0
 26 28  1  0  0  0  0
 26 31  2  0  0  0  0
 27 28  1  0  0  0  0
 28 16  1  6  0  0  0
 29 30  1  0  0  0  0
M  CHG  1  29   1
M  END
>  <Compound name>
Doxylamine

>  <Activity>
10

>  <ABUNDANCE>
94.95% at pH 7.4

>  <SPLIT_SET>
External

$$$$
C6H7N3O
 OpenBabel12201215033D

 17 17  0  0  0  0  0  0  0  0999 V2000
    1.0880   -1.0320    0.0370 C   0  0  0  0  0  0  0  0  0  0  0  0
    3.4960   -1.1540    0.1090 C   0  0  0  0  0  0  0  0  0  0  0  0
    1.0730   -2.4100   -0.0780 C   0  0  0  0  0  0  0  0  0  0  0  0
    3.3690   -2.5290   -0.0070 C   0  0  0  0  0  0  0  0  0  0  0  0
    2.3270   -0.3920    0.1190 C   0  0  0  0  0  0  0  0  0  0  0  0
    1.3750    1.6720    0.7340 O   0  0  0  0  0  0  0  0  0  0  0  0
    2.3410    1.0880    0.2490 C   0  0  0  0  0  0  0  0  0  0  0  0
    3.5510    3.1390   -0.0960 N   0  0  0  0  0  0  0  0  0  0  0  0
    3.4670    1.7440   -0.2300 N   0  0  0  0  0  0  0  0  0  0  0  0
    2.1860   -3.1730   -0.1070 N   0  0  0  0  0  0  0  0  0  0  0  0
    0.1580   -0.4720    0.0580 H   0  0  0  0  0  0  0  0  0  0  0  0
    4.4820   -0.7200    0.2150 H   0  0  0  0  0  0  0  0  0  0  0  0
    0.1370   -2.9560   -0.1500 H   0  0  0  0  0  0  0  0  0  0  0  0
    4.2440   -3.1720   -0.0170 H   0  0  0  0  0  0  0  0  0  0  0  0
    3.8170    3.3390    0.8720 H   0  0  0  0  0  0  0  0  0  0  0  0
    2.5910    3.5000   -0.1650 H   0  0  0  0  0  0  0  0  0  0  0  0
    4.2320    1.2620   -0.6930 H   0  0  0  0  0  0  0  0  0  0  0  0
  1  3  1  0  0  0  0
  1  5  2  0  0  0  0
  1 11  1  0  0  0  0
  2  4  2  0  0  0  0
  2  5  1  0  0  0  0
  2 12  1  0  0  0  0
  3 10  2  0  0  0  0
  3 13  1  0  0  0  0
  4 10  1  0  0  0  0
  4 14  1  0  0  0  0
  5  7  1  0  0  0  0
  6  7  2  0  0  0  0
  7  9  1  0  0  0  0
  8  9  1  0  0  0  0
  8 15  1  0  0  0  0
  8 16  1  0  0  0  0
  9 17  1  0  0  0  0
M  END
>  <Compound name>
Isoniazid

>  <Activity>
10

>  <ABUNDANCE>
99.96% at pH 7.4

>  <SPLIT_SET>
External

$$$$
C6H9NO6
 OpenBabel12201215033D

 22 23  0  0  0  0  0  0  0  0999 V2000
    5.4600   -1.8680    0.0790 C   0  0  2  0  0  0  0  0  0  0  0  0
    4.1130   -1.4660   -0.4740 C   0  0  2  0  0  0  0  0  0  0  0  0
    4.1730    0.0500   -0.4530 C   0  0  1  0  0  0  0  0  0  0  0  0
    2.7340    0.4290   -0.1540 C   0  0  1  0  0  0  0  0  0  0  0  0
    0.4290    1.5340    0.0400 O   0  0  0  0  0  0  0  0  0  0  0  0
    5.7320   -0.7640    1.0900 C   0  0  0  0  0  0  0  0  0  0  0  0
    2.3490   -0.6650    0.8310 C   0  0  0  0  0  0  0  0  0  0  0  0
    6.4230   -1.8320   -0.9740 O   0  0  0  0  0  0  0  0  0  0  0  0
    2.6570    1.7430    0.3780 O   0  0  0  0  0  0  0  0  0  0  0  0
    5.0620    0.4200    0.6200 O   0  0  0  0  0  0  0  0  0  0  0  0
    3.0500   -1.8520    0.4210 O   0  0  0  0  0  0  0  0  0  0  0  0
    1.2990    3.4090    0.8760 O   0  5  0  0  0  0  0  0  0  0  0  0
    1.3420    2.2640    0.4290 N   0  3  0  0  0  0  0  0  0  0  0  0
    7.2920   -2.0360   -0.5880 H   0  0  0  0  0  0  0  0  0  0  0  0
    4.5610    0.4970   -1.3740 H   0  0  0  0  0  0  0  0  0  0  0  0
    3.8950   -1.8670   -1.4680 H   0  0  0  0  0  0  0  0  0  0  0  0
    5.3070   -1.0090    2.0690 H   0  0  0  0  0  0  0  0  0  0  0  0
    6.7960   -0.5400    1.2080 H   0  0  0  0  0  0  0  0  0  0  0  0
    5.4740   -2.8600    0.5380 H   0  0  0  0  0  0  0  0  0  0  0  0
    2.1670    0.3310   -1.0900 H   0  0  0  0  0  0  0  0  0  0  0  0
    2.6430   -0.4190    1.8570 H   0  0  0  0  0  0  0  0  0  0  0  0
    1.2750   -0.8710    0.8330 H   0  0  0  0  0  0  0  0  0  0  0  0
  1  2  1  0  0  0  0
  1  6  1  0  0  0  0
  1  8  1  0  0  0  0
  1 19  1  1  0  0  0
  2  3  1  0  0  0  0
  2 11  1  0  0  0  0
  2 16  1  6  0  0  0
  3  4  1  0  0  0  0
  3 10  1  0  0  0  0
  3 15  1  6  0  0  0
  4  7  1  0  0  0  0
  4  9  1  0  0  0  0
  4 20  1  6  0  0  0
  5 13  2  0  0  0  0
  6 10  1  0  0  0  0
  6 17  1  0  0  0  0
  6 18  1  0  0  0  0
  7 11  1  0  0  0  0
  7 21  1  0  0  0  0
  7 22  1  0  0  0  0
  8 14  1  0  0  0  0
  9 13  1  0  0  0  0
 12 13  1  0  0  0  0
M  CHG  2  12  -1  13   1
M  END
>  <Compound name>
Isosorbide mononitrate

>  <Activity>
10

>  <ABUNDANCE>
100% at pH 7.4

>  <SPLIT_SET>
External

$$$$
C14H19N3S
 OpenBabel12201215033D

 38 39  0  0  0  0  0  0  0  0999 V2000
    4.3430    2.6850   -0.7740 C   0  0  0  0  0  0  0  0  0  0  0  0
    3.5510    2.8970   -1.4840 H   0  0  0  0  0  0  0  0  0  0  0  0
    5.1410    3.7500   -0.3520 C   0  0  0  0  0  0  0  0  0  0  0  0
    4.9690    4.7500   -0.7420 H   0  0  0  0  0  0  0  0  0  0  0  0
    6.3060    2.2330    1.0330 C   0  0  0  0  0  0  0  0  0  0  0  0
    7.0750    1.9930    1.7610 H   0  0  0  0  0  0  0  0  0  0  0  0
    0.9280    1.2000   -0.1100 C   0  0  0  0  0  0  0  0  0  0  0  0
    1.5500    1.2960    0.7720 H   0  0  0  0  0  0  0  0  0  0  0  0
    6.1460    3.5230    0.5710 C   0  0  0  0  0  0  0  0  0  0  0  0
    6.7820    4.3280    0.9220 H   0  0  0  0  0  0  0  0  0  0  0  0
   -0.4640    1.4970   -0.1410 C   0  0  0  0  0  0  0  0  0  0  0  0
   -1.0390    1.8470    0.7080 H   0  0  0  0  0  0  0  0  0  0  0  0
   -1.0070    1.2870   -1.3880 C   0  0  0  0  0  0  0  0  0  0  0  0
   -2.0340    1.4290   -1.6940 H   0  0  0  0  0  0  0  0  0  0  0  0
    2.7960    0.3580   -1.7320 C   0  0  0  0  0  0  0  0  0  0  0  0
    3.9570   -0.9460    0.0780 C   0  0  0  0  0  0  0  0  0  0  0  0
    5.1870   -1.7190   -0.4240 C   0  0  0  0  0  0  0  0  0  0  0  0
    6.1300   -1.1940   -0.2450 H   0  0  0  0  0  0  0  0  0  0  0  0
    5.0900   -1.8930   -1.5030 H   0  0  0  0  0  0  0  0  0  0  0  0
    6.2410   -3.9820   -0.5400 C   0  0  0  0  0  0  0  0  0  0  0  0
    6.2490   -4.9640   -0.0600 H   0  0  0  0  0  0  0  0  0  0  0  0
    7.2360   -3.5300   -0.5310 H   0  0  0  0  0  0  0  0  0  0  0  0
    5.8600   -4.0740   -1.5610 H   0  0  0  0  0  0  0  0  0  0  0  0
    5.7040   -3.0140    1.6800 C   0  0  0  0  0  0  0  0  0  0  0  0
    5.7830   -4.0350    2.0640 H   0  0  0  0  0  0  0  0  0  0  0  0
    4.9250   -2.4810    2.2290 H   0  0  0  0  0  0  0  0  0  0  0  0
    6.6640   -2.4960    1.7500 H   0  0  0  0  0  0  0  0  0  0  0  0
    4.5540    1.3990   -0.2690 C   0  0  0  0  0  0  0  0  0  0  0  0
    1.4050    0.7740   -1.3360 C   0  0  0  0  0  0  0  0  0  0  0  0
    3.7830    0.3110   -0.6510 N   0  0  0  0  0  0  0  0  0  0  0  0
    5.3010   -3.0910    0.2310 N   0  3  0  0  0  0  0  0  0  0  0  0
    4.3780   -3.5440    0.1900 H   0  0  0  0  0  0  0  0  0  0  0  0
    5.5430    1.1860    0.6370 N   0  0  0  0  0  0  0  0  0  0  0  0
    0.1570    0.7440   -2.5140 S   0  0  0  0  0  0  0  0  0  0  0  0
    3.1560    0.9920   -2.5520 H   0  0  0  0  0  0  0  0  0  0  0  0
    2.7300   -0.6470   -2.1740 H   0  0  0  0  0  0  0  0  0  0  0  0
    4.0140   -0.7570    1.1570 H   0  0  0  0  0  0  0  0  0  0  0  0
    3.0660   -1.5740   -0.0560 H   0  0  0  0  0  0  0  0  0  0  0  0
  1  2  1  0  0  0  0
  1  3  2  0  0  0  0
  1 28  1  0  0  0  0
  3  4  1  0  0  0  0
  3  9  1  0  0  0  0
  5  6  1  0  0  0  0
  5  9  2  0  0  0  0
  5 33  1  0  0  0  0
  7  8  1  0  0  0  0
  7 11  1  0  0  0  0
  7 29  2  0  0  0  0
  9 10  1  0  0  0  0
 11 12  1  0  0  0  0
 11 13  2  0  0  0  0
 13 14  1  0  0  0  0
 13 34  1  0  0  0  0
 15 29  1  0  0  0  0
 15 30  1  0  0  0  0
 15 35  1  0  0  0  0
 15 36  1  0  0  0  0
 16 17  1  0  0  0  0
 16 30  1  0  0  0  0
 16 37  1  0  0  0  0
 16 38  1  0  0  0  0
 17 18  1  0  0  0  0
 17 19  1  0  0  0  0
 17 31  1  0  0  0  0
 20 21  1  0  0  0  0
 20 22  1  0  0  0  0
 20 23  1  0  0  0  0
 20 31  1  0  0  0  0
 24 25  1  0  0  0  0
 24 26  1  0  0  0  0
 24 27  1  0  0  0  0
 24 31  1  0  0  0  0
 28 30  1  0  0  0  0
 28 33  2  0  0  0  0
 29 34  1  0  0  0  0
 31 32  1  0  0  0  0
M  CHG  1  31   1
M  END
>  <Compound name>
Methapyrilene

>  <Activity>
10

>  <ABUNDANCE>
84.65% at pH 7.4

>  <SPLIT_SET>
External

$$$$
C14H14N2O
 OpenBabel12201215033D

 31 32  0  0  0  0  0  0  0  0999 V2000
    3.5060    2.9480   -0.2250 C   0  0  0  0  0  0  0  0  0  0  0  0
    4.8070    1.8470    1.4530 C   0  0  0  0  0  0  0  0  0  0  0  0
    4.5120    3.9070   -0.3160 C   0  0  0  0  0  0  0  0  0  0  0  0
    5.6300    3.7690    0.4940 C   0  0  0  0  0  0  0  0  0  0  0  0
    1.1210   -2.3600    0.1210 C   0  0  0  0  0  0  0  0  0  0  0  0
    3.4490   -2.0990    0.5020 C   0  0  0  0  0  0  0  0  0  0  0  0
    1.2430   -3.6830    0.5420 C   0  0  0  0  0  0  0  0  0  0  0  0
    2.4910   -4.1410    0.9230 C   0  0  0  0  0  0  0  0  0  0  0  0
    3.0780    0.0690   -1.6200 C   0  0  0  0  0  0  0  0  0  0  0  0
    0.7820    0.4430   -0.7230 C   0  0  0  0  0  0  0  0  0  0  0  0
    3.6680    1.8870    0.6600 C   0  0  0  0  0  0  0  0  0  0  0  0
    2.2410   -1.5220    0.0890 C   0  0  0  0  0  0  0  0  0  0  0  0
    2.2200    0.6770    1.9770 O   0  0  0  0  0  0  0  0  0  0  0  0
    2.6570    0.8300    0.8360 C   0  0  0  0  0  0  0  0  0  0  0  0
    2.1990   -0.0500   -0.3570 C   0  0  0  0  0  0  0  0  0  0  0  0
    5.8000    2.7610    1.3790 N   0  0  0  0  0  0  0  0  0  0  0  0
    3.6020   -3.3800    0.9110 N   0  0  0  0  0  0  0  0  0  0  0  0
    2.6130    3.0520   -0.8330 H   0  0  0  0  0  0  0  0  0  0  0  0
    4.9620    1.0600    2.1860 H   0  0  0  0  0  0  0  0  0  0  0  0
    4.4240    4.7450   -0.9980 H   0  0  0  0  0  0  0  0  0  0  0  0
    2.8040   -0.6900   -2.3640 H   0  0  0  0  0  0  0  0  0  0  0  0
    4.1440   -0.0620   -1.3980 H   0  0  0  0  0  0  0  0  0  0  0  0
    2.9660    1.0410   -2.1110 H   0  0  0  0  0  0  0  0  0  0  0  0
    0.7920    1.4990   -1.0150 H   0  0  0  0  0  0  0  0  0  0  0  0
    0.3610   -0.1230   -1.5620 H   0  0  0  0  0  0  0  0  0  0  0  0
    0.0920    0.3580    0.1250 H   0  0  0  0  0  0  0  0  0  0  0  0
    6.4400    4.4910    0.4560 H   0  0  0  0  0  0  0  0  0  0  0  0
    0.1360   -2.0090   -0.1730 H   0  0  0  0  0  0  0  0  0  0  0  0
    4.3730   -1.5280    0.5180 H   0  0  0  0  0  0  0  0  0  0  0  0
    0.3790   -4.3380    0.5740 H   0  0  0  0  0  0  0  0  0  0  0  0
    2.6340   -5.1630    1.2590 H   0  0  0  0  0  0  0  0  0  0  0  0
  1  3  2  0  0  0  0
  1 11  1  0  0  0  0
  1 18  1  0  0  0  0
  2 11  2  0  0  0  0
  2 16  1  0  0  0  0
  2 19  1  0  0  0  0
  3  4  1  0  0  0  0
  3 20  1  0  0  0  0
  4 16  2  0  0  0  0
  4 27  1  0  0  0  0
  5  7  2  0  0  0  0
  5 12  1  0  0  0  0
  5 28  1  0  0  0  0
  6 12  2  0  0  0  0
  6 17  1  0  0  0  0
  6 29  1  0  0  0  0
  7  8  1  0  0  0  0
  7 30  1  0  0  0  0
  8 17  2  0  0  0  0
  8 31  1  0  0  0  0
  9 15  1  0  0  0  0
  9 21  1  0  0  0  0
  9 22  1  0  0  0  0
  9 23  1  0  0  0  0
 10 15  1  0  0  0  0
 10 24  1  0  0  0  0
 10 25  1  0  0  0  0
 10 26  1  0  0  0  0
 11 14  1  0  0  0  0
 12 15  1  0  0  0  0
 13 14  2  0  0  0  0
 14 15  1  0  0  0  0
M  END
>  <Compound name>
Metyrapone

>  <Activity>
10

>  <ABUNDANCE>
99.08% at pH 7.4

>  <SPLIT_SET>
External

$$$$
C30H24N4O10
 OpenBabel12201215033D

 67 71  0  0  0  0  0  0  0  0999 V2000
    5.6770    0.0800   -0.5280 C   0  0  1  0  0  0  0  0  0  0  0  0
    4.7640    1.1500    0.0480 C   0  0  1  0  0  0  0  0  0  0  0  0
    7.0680    0.7450   -0.4190 C   0  0  2  0  0  0  0  0  0  0  0  0
    5.4410    2.4260   -0.4680 C   0  0  1  0  0  0  0  0  0  0  0  0
    3.9090   -4.3470    0.3550 C   0  0  0  0  0  0  0  0  0  0  0  0
    5.6360   -3.3810    1.6940 C   0  0  0  0  0  0  0  0  0  0  0  0
    6.3240   -2.5810    1.9580 H   0  0  0  0  0  0  0  0  0  0  0  0
    1.0710    0.8990   -1.8340 C   0  0  0  0  0  0  0  0  0  0  0  0
    0.0100    0.2880    0.2140 C   0  0  0  0  0  0  0  0  0  0  0  0
    0.0280    0.0170    1.2670 H   0  0  0  0  0  0  0  0  0  0  0  0
    3.9600   -5.4760    1.1670 C   0  0  0  0  0  0  0  0  0  0  0  0
   -0.1910    0.9830   -2.4180 C   0  0  0  0  0  0  0  0  0  0  0  0
   11.8100    1.9010   -1.0970 C   0  0  0  0  0  0  0  0  0  0  0  0
   12.1500    0.4060    0.7350 C   0  0  0  0  0  0  0  0  0  0  0  0
    4.8670   -5.4900    2.2150 C   0  0  0  0  0  0  0  0  0  0  0  0
    0.6390    4.4750   -0.0570 C   0  0  0  0  0  0  0  0  0  0  0  0
    1.4940    3.5150    1.9550 C   0  0  0  0  0  0  0  0  0  0  0  0
   -1.3000    0.7100   -1.6330 C   0  0  0  0  0  0  0  0  0  0  0  0
   12.9250    2.6170   -0.6700 C   0  0  0  0  0  0  0  0  0  0  0  0
   -0.6480    4.2710    0.4330 C   0  0  0  0  0  0  0  0  0  0  0  0
   13.5990    2.1720    0.4580 C   0  0  0  0  0  0  0  0  0  0  0  0
   -0.7870    3.6870    1.6810 C   0  0  0  0  0  0  0  0  0  0  0  0
   -1.7700    3.4970    2.1020 H   0  0  0  0  0  0  0  0  0  0  0  0
    8.0230    0.1200   -1.4650 C   0  0  0  0  0  0  0  0  0  0  0  0
    5.3460    3.5850    0.5250 C   0  0  0  0  0  0  0  0  0  0  0  0
    4.7620   -3.2720    0.6160 C   0  0  0  0  0  0  0  0  0  0  0  0
    1.1820    0.5460   -0.4880 C   0  0  0  0  0  0  0  0  0  0  0  0
   11.4150    0.7700   -0.3830 C   0  0  0  0  0  0  0  0  0  0  0  0
    1.7380    4.0900    0.7140 C   0  0  0  0  0  0  0  0  0  0  0  0
    3.9490   -1.9710   -1.2030 O   0  0  0  0  0  0  0  0  0  0  0  0
    2.6100   -0.0590    1.3180 O   0  0  0  0  0  0  0  0  0  0  0  0
   10.1940   -1.2510   -0.4610 O   0  0  0  0  0  0  0  0  0  0  0  0
    3.3270    4.7250   -0.9370 O   0  0  0  0  0  0  0  0  0  0  0  0
    7.5740    0.6800    0.8020 O   0  5  0  0  0  0  0  0  0  0  0  0
    4.7050   -2.0770   -0.2520 C   0  0  0  0  0  0  0  0  0  0  0  0
    2.4780    0.4550    0.2210 C   0  0  0  0  0  0  0  0  0  0  0  0
   10.2650   -0.0670   -0.7540 C   0  0  0  0  0  0  0  0  0  0  0  0
    3.0990    4.2520    0.1630 C   0  0  0  0  0  0  0  0  0  0  0  0
    5.5980   -1.1660    0.1790 O   0  0  0  0  0  0  0  0  0  0  0  0
    3.4350    1.0740   -0.5090 O   0  0  0  0  0  0  0  0  0  0  0  0
    9.3470    0.6880   -1.4010 O   0  0  0  0  0  0  0  0  0  0  0  0
    4.0080    3.7450    1.0270 O   0  0  0  0  0  0  0  0  0  0  0  0
    6.8260    2.1310   -0.7410 O   0  0  0  0  0  0  0  0  0  0  0  0
    5.7080   -4.4720    2.4990 N   0  0  0  0  0  0  0  0  0  0  0  0
   -1.2330    0.3640   -0.3280 N   0  0  0  0  0  0  0  0  0  0  0  0
   13.2380    1.0820    1.1730 N   0  0  0  0  0  0  0  0  0  0  0  0
    0.2530    3.3070    2.4570 N   0  0  0  0  0  0  0  0  0  0  0  0
    5.4260   -0.0750   -1.5870 H   0  0  0  0  0  0  0  0  0  0  0  0
    4.7320    1.1130    1.1440 H   0  0  0  0  0  0  0  0  0  0  0  0
    4.9880    2.7300   -1.4200 H   0  0  0  0  0  0  0  0  0  0  0  0
    7.6580    0.3480   -2.4740 H   0  0  0  0  0  0  0  0  0  0  0  0
    8.0510   -0.9740   -1.3810 H   0  0  0  0  0  0  0  0  0  0  0  0
    5.7060    4.5210    0.0800 H   0  0  0  0  0  0  0  0  0  0  0  0
    5.9940    3.3980    1.3890 H   0  0  0  0  0  0  0  0  0  0  0  0
    3.2050   -4.3070   -0.4730 H   0  0  0  0  0  0  0  0  0  0  0  0
    1.9520    1.1050   -2.4370 H   0  0  0  0  0  0  0  0  0  0  0  0
    3.3090   -6.3240    0.9850 H   0  0  0  0  0  0  0  0  0  0  0  0
   -0.3020    1.2540   -3.4620 H   0  0  0  0  0  0  0  0  0  0  0  0
   11.2620    2.2260   -1.9780 H   0  0  0  0  0  0  0  0  0  0  0  0
   11.8740   -0.4580    1.3340 H   0  0  0  0  0  0  0  0  0  0  0  0
    4.9420   -6.3480    2.8760 H   0  0  0  0  0  0  0  0  0  0  0  0
    0.7780    4.9200   -1.0400 H   0  0  0  0  0  0  0  0  0  0  0  0
    2.2960    3.1760    2.6050 H   0  0  0  0  0  0  0  0  0  0  0  0
   -2.3020    0.7610   -2.0460 H   0  0  0  0  0  0  0  0  0  0  0  0
   13.2570    3.5010   -1.2020 H   0  0  0  0  0  0  0  0  0  0  0  0
   -1.5180    4.5500   -0.1500 H   0  0  0  0  0  0  0  0  0  0  0  0
   14.4750    2.6960    0.8280 H   0  0  0  0  0  0  0  0  0  0  0  0
  1  2  1  0  0  0  0
  1  3  1  0  0  0  0
  1 39  1  0  0  0  0
  1 48  1  6  0  0  0
  2  4  1  0  0  0  0
  2 40  1  0  0  0  0
  2 49  1  1  0  0  0
  3 24  1  6  0  0  0
  3 34  1  0  0  0  0
  3 43  1  0  0  0  0
  4 25  1  0  0  0  0
  4 43  1  0  0  0  0
  4 50  1  6  0  0  0
  5 11  2  0  0  0  0
  5 26  1  0  0  0  0
  5 55  1  0  0  0  0
  6  7  1  0  0  0  0
  6 26  2  0  0  0  0
  6 44  1  0  0  0  0
  8 12  2  0  0  0  0
  8 27  1  0  0  0  0
  8 56  1  0  0  0  0
  9 10  1  0  0  0  0
  9 27  2  0  0  0  0
  9 45  1  0  0  0  0
 11 15  1  0  0  0  0
 11 57  1  0  0  0  0
 12 18  1  0  0  0  0
 12 58  1  0  0  0  0
 13 19  2  0  0  0  0
 13 28  1  0  0  0  0
 13 59  1  0  0  0  0
 14 28  2  0  0  0  0
 14 46  1  0  0  0  0
 14 60  1  0  0  0  0
 15 44  2  0  0  0  0
 15 61  1  0  0  0  0
 16 20  2  0  0  0  0
 16 29  1  0  0  0  0
 16 62  1  0  0  0  0
 17 29  2  0  0  0  0
 17 47  1  0  0  0  0
 17 63  1  0  0  0  0
 18 45  2  0  0  0  0
 18 64  1  0  0  0  0
 19 21  1  0  0  0  0
 19 65  1  0  0  0  0
 20 22  1  0  0  0  0
 20 66  1  0  0  0  0
 21 46  2  0  0  0  0
 21 67  1  0  0  0  0
 22 23  1  0  0  0  0
 22 47  2  0  0  0  0
 24 41  1  0  0  0  0
 24 51  1  0  0  0  0
 24 52  1  0  0  0  0
 25 42  1  0  0  0  0
 25 53  1  0  0  0  0
 25 54  1  0  0  0  0
 26 35  1  0  0  0  0
 27 36  1  0  0  0  0
 28 37  1  0  0  0  0
 29 38  1  0  0  0  0
 30 35  2  0  0  0  0
 31 36  2  0  0  0  0
 32 37  2  0  0  0  0
 33 38  2  0  0  0  0
 35 39  1  0  0  0  0
 36 40  1  0  0  0  0
 37 41  1  0  0  0  0
 38 42  1  0  0  0  0
M  CHG  1  34  -1
M  END
>  <Compound name>
Nicofuranose

>  <Activity>
10

>  <ABUNDANCE>
89.3% at pH 7.4

>  <SPLIT_SET>
External

$$$$
C6H5NO2
 OpenBabel12201215033D

 13 13  0  0  0  0  0  0  0  0999 V2000
    2.3020    1.6500   -0.0020 C   0  0  0  0  0  0  0  0  0  0  0  0
    2.3060    0.1500   -0.0010 C   0  0  0  0  0  0  0  0  0  0  0  0
    1.1140   -0.5660    0.0050 C   0  0  0  0  0  0  0  0  0  0  0  0
    0.1550   -0.0530    0.0100 H   0  0  0  0  0  0  0  0  0  0  0  0
    1.0310   -1.9200    0.0070 N   0  0  0  0  0  0  0  0  0  0  0  0
    2.2030   -2.5920    0.0020 C   0  0  0  0  0  0  0  0  0  0  0  0
    3.4460   -1.9810   -0.0050 C   0  0  0  0  0  0  0  0  0  0  0  0
    4.3560   -2.5690   -0.0080 H   0  0  0  0  0  0  0  0  0  0  0  0
    3.4930   -0.5910   -0.0060 C   0  0  0  0  0  0  0  0  0  0  0  0
    4.4520   -0.0780   -0.0110 H   0  0  0  0  0  0  0  0  0  0  0  0
    1.1670    2.2210    0.0030 O   0  0  0  0  0  0  0  0  0  0  0  0
    3.4310    2.2320   -0.0080 O   0  5  0  0  0  0  0  0  0  0  0  0
    2.1130   -3.6740    0.0030 H   0  0  0  0  0  0  0  0  0  0  0  0
  1  2  1  0  0  0  0
  1 11  2  0  0  0  0
  1 12  1  0  0  0  0
  2  3  1  0  0  0  0
  2  9  2  0  0  0  0
  3  4  1  0  0  0  0
  3  5  2  0  0  0  0
  5  6  1  0  0  0  0
  6  7  2  0  0  0  0
  6 13  1  0  0  0  0
  7  8  1  0  0  0  0
  7  9  1  0  0  0  0
  9 10  1  0  0  0  0
M  CHG  1  12  -1
M  END
>  <Compound name>
Nicotinic acid

>  <Activity>
10

>  <ABUNDANCE>
99.98% at pH 7.4

>  <SPLIT_SET>
External

$$$$
C12H14N2
 OpenBabel12201215033D

 28 29  0  0  0  0  0  0  0  0999 V2000
    3.4290   -1.4470   -0.6750 C   0  0  0  0  0  0  0  0  0  0  0  0
    1.3200   -1.4970    0.4500 C   0  0  0  0  0  0  0  0  0  0  0  0
    3.4810    1.4260    0.5130 C   0  0  0  0  0  0  0  0  0  0  0  0
    1.2890    1.4820   -0.4400 C   0  0  0  0  0  0  0  0  0  0  0  0
    3.4020   -2.8380   -0.7370 C   0  0  0  0  0  0  0  0  0  0  0  0
    1.3350   -2.8870    0.3690 C   0  0  0  0  0  0  0  0  0  0  0  0
    3.4640    2.8170    0.5770 C   0  0  0  0  0  0  0  0  0  0  0  0
    1.3150    2.8720   -0.3590 C   0  0  0  0  0  0  0  0  0  0  0  0
    2.3610   -5.0010   -0.2900 C   0  0  0  0  0  0  0  0  0  0  0  0
    2.3980    4.9830    0.2180 C   0  0  0  0  0  0  0  0  0  0  0  0
    2.3760   -0.7450   -0.0760 C   0  0  0  0  0  0  0  0  0  0  0  0
    2.3820    0.7270    0.0000 C   0  0  0  0  0  0  0  0  0  0  0  0
    2.3630   -3.5300   -0.2250 N   0  3  0  0  0  0  0  0  0  0  0  0
    2.3880    3.5120    0.1500 N   0  3  0  0  0  0  0  0  0  0  0  0
    4.2750   -0.9190   -1.1100 H   0  0  0  0  0  0  0  0  0  0  0  0
    0.4800   -1.0100    0.9420 H   0  0  0  0  0  0  0  0  0  0  0  0
    4.3580    0.8950    0.8780 H   0  0  0  0  0  0  0  0  0  0  0  0
    0.4110    0.9980   -0.8630 H   0  0  0  0  0  0  0  0  0  0  0  0
    4.2060   -3.4070   -1.1940 H   0  0  0  0  0  0  0  0  0  0  0  0
    0.5330   -3.4950    0.7770 H   0  0  0  0  0  0  0  0  0  0  0  0
    4.3030    3.3830    0.9690 H   0  0  0  0  0  0  0  0  0  0  0  0
    0.4840    3.4820   -0.7020 H   0  0  0  0  0  0  0  0  0  0  0  0
    1.3300   -5.3540   -0.3730 H   0  0  0  0  0  0  0  0  0  0  0  0
    2.8270   -5.3700    0.6270 H   0  0  0  0  0  0  0  0  0  0  0  0
    2.9240   -5.3230   -1.1700 H   0  0  0  0  0  0  0  0  0  0  0  0
    2.9920    5.2970    1.0800 H   0  0  0  0  0  0  0  0  0  0  0  0
    2.8370    5.3500   -0.7130 H   0  0  0  0  0  0  0  0  0  0  0  0
    1.3730    5.3440    0.3340 H   0  0  0  0  0  0  0  0  0  0  0  0
  1  5  1  0  0  0  0
  1 11  2  0  0  0  0
  1 15  1  0  0  0  0
  2  6  2  0  0  0  0
  2 11  1  0  0  0  0
  2 16  1  0  0  0  0
  3  7  1  0  0  0  0
  3 12  2  0  0  0  0
  3 17  1  0  0  0  0
  4  8  2  0  0  0  0
  4 12  1  0  0  0  0
  4 18  1  0  0  0  0
  5 13  2  0  0  0  0
  5 19  1  0  0  0  0
  6 13  1  0  0  0  0
  6 20  1  0  0  0  0
  7 14  2  0  0  0  0
  7 21  1  0  0  0  0
  8 14  1  0  0  0  0
  8 22  1  0  0  0  0
  9 13  1  0  0  0  0
  9 23  1  0  0  0  0
  9 24  1  0  0  0  0
  9 25  1  0  0  0  0
 10 14  1  0  0  0  0
 10 26  1  0  0  0  0
 10 27  1  0  0  0  0
 10 28  1  0  0  0  0
 11 12  1  0  0  0  0
M  CHG  2  13   1  14   1
M  END
>  <Compound name>
Paraquat

>  <Activity>
35

>  <ABUNDANCE>
No species found

>  <SPLIT_SET>
External

$$$$
C11H11N5
 OpenBabel12201215033D

 28 29  0  0  0  0  0  0  0  0999 V2000
    6.2920   -0.1310   -0.1390 C   0  0  0  0  0  0  0  0  0  0  0  0
    7.4050   -0.9490    0.0360 C   0  0  0  0  0  0  0  0  0  0  0  0
    2.4190    2.5300   -0.5000 C   0  0  0  0  0  0  0  0  0  0  0  0
    3.3510    2.8280   -0.9720 H   0  0  0  0  0  0  0  0  0  0  0  0
    1.1520    0.9970    0.8670 C   0  0  0  0  0  0  0  0  0  0  0  0
    1.2900    3.3400   -0.6390 C   0  0  0  0  0  0  0  0  0  0  0  0
    1.3440    4.2580   -1.2200 H   0  0  0  0  0  0  0  0  0  0  0  0
    0.0230    1.8060    0.7290 C   0  0  0  0  0  0  0  0  0  0  0  0
   -0.9100    1.5290    1.2140 H   0  0  0  0  0  0  0  0  0  0  0  0
    0.0930    2.9760   -0.0260 C   0  0  0  0  0  0  0  0  0  0  0  0
   -0.7850    3.6080   -0.1320 H   0  0  0  0  0  0  0  0  0  0  0  0
    5.0560   -0.6950   -0.4630 C   0  0  0  0  0  0  0  0  0  0  0  0
    4.9730   -2.0890   -0.6250 C   0  0  0  0  0  0  0  0  0  0  0  0
    7.2770   -2.3270   -0.1230 C   0  0  0  0  0  0  0  0  0  0  0  0
    2.3570    1.3430    0.2450 C   0  0  0  0  0  0  0  0  0  0  0  0
    3.8020   -2.7330   -0.9620 N   0  0  0  0  0  0  0  0  0  0  0  0
    3.7050   -3.7300   -1.0930 H   0  0  0  0  0  0  0  0  0  0  0  0
    2.9700   -2.1630   -1.0880 H   0  0  0  0  0  0  0  0  0  0  0  0
    8.3380   -3.1850    0.0350 N   0  0  0  0  0  0  0  0  0  0  0  0
    8.2780   -4.1870   -0.0740 H   0  0  0  0  0  0  0  0  0  0  0  0
    9.2500   -2.8120    0.2770 H   0  0  0  0  0  0  0  0  0  0  0  0
    3.9260    0.1190   -0.6690 N   0  0  0  0  0  0  0  0  0  0  0  0
    3.4850    0.5200    0.4300 N   0  0  0  0  0  0  0  0  0  0  0  0
    6.0780   -2.8260   -0.4440 N   0  3  0  0  0  0  0  0  0  0  0  0
    5.9980   -3.8280   -0.5600 H   0  0  0  0  0  0  0  0  0  0  0  0
    6.3850    0.9460   -0.0210 H   0  0  0  0  0  0  0  0  0  0  0  0
    8.3630   -0.5060    0.2930 H   0  0  0  0  0  0  0  0  0  0  0  0
    1.0900    0.0910    1.4660 H   0  0  0  0  0  0  0  0  0  0  0  0
  1  2  2  0  0  0  0
  1 12  1  0  0  0  0
  1 26  1  0  0  0  0
  2 14  1  0  0  0  0
  2 27  1  0  0  0  0
  3  4  1  0  0  0  0
  3  6  1  0  0  0  0
  3 15  2  0  0  0  0
  5  8  2  0  0  0  0
  5 15  1  0  0  0  0
  5 28  1  0  0  0  0
  6  7  1  0  0  0  0
  6 10  2  0  0  0  0
  8  9  1  0  0  0  0
  8 10  1  0  0  0  0
 10 11  1  0  0  0  0
 12 13  2  0  0  0  0
 12 22  1  0  0  0  0
 13 16  1  0  0  0  0
 13 24  1  0  0  0  0
 14 19  1  0  0  0  0
 14 24  2  0  0  0  0
 15 23  1  0  0  0  0
 16 17  1  0  0  0  0
 16 18  1  0  0  0  0
 19 20  1  0  0  0  0
 19 21  1  0  0  0  0
 22 23  2  0  0  0  0
 24 25  1  0  0  0  0
M  CHG  1  24   1
M  END
>  <Compound name>
Phenazopyridine

>  <Activity>
10

>  <ABUNDANCE>
57.08% at pH 7.4

>  <SPLIT_SET>
External

$$$$
C16H20N2
 OpenBabel12201215033D

 39 40  0  0  0  0  0  0  0  0999 V2000
    3.6830   -2.5920    1.4470 C   0  0  0  0  0  0  0  0  0  0  0  0
    3.5690   -2.2050    2.4570 H   0  0  0  0  0  0  0  0  0  0  0  0
    3.9910   -2.2630   -0.9270 C   0  0  0  0  0  0  0  0  0  0  0  0
    4.1260   -1.6140   -1.7900 H   0  0  0  0  0  0  0  0  0  0  0  0
    6.3460    0.2290    0.7540 C   0  0  0  0  0  0  0  0  0  0  0  0
    6.3870   -0.3900    1.6450 H   0  0  0  0  0  0  0  0  0  0  0  0
    3.6620   -3.9740    1.2510 C   0  0  0  0  0  0  0  0  0  0  0  0
    3.5360   -4.6440    2.0990 H   0  0  0  0  0  0  0  0  0  0  0  0
    3.9690   -3.6460   -1.1200 C   0  0  0  0  0  0  0  0  0  0  0  0
    4.0850   -4.0570   -2.1190 H   0  0  0  0  0  0  0  0  0  0  0  0
    7.5080    0.8180    0.2630 C   0  0  0  0  0  0  0  0  0  0  0  0
    8.4560    0.6650    0.7720 H   0  0  0  0  0  0  0  0  0  0  0  0
    6.2180    1.7520   -1.5010 C   0  0  0  0  0  0  0  0  0  0  0  0
    6.1200    2.3470   -2.4040 H   0  0  0  0  0  0  0  0  0  0  0  0
    3.8040   -4.5000   -0.0320 C   0  0  0  0  0  0  0  0  0  0  0  0
    3.7880   -5.5760   -0.1820 H   0  0  0  0  0  0  0  0  0  0  0  0
    7.4470    1.5950   -0.8860 C   0  0  0  0  0  0  0  0  0  0  0  0
    8.3370    2.0630   -1.2930 H   0  0  0  0  0  0  0  0  0  0  0  0
    2.5740    0.4170   -0.0030 C   0  0  0  0  0  0  0  0  0  0  0  0
    2.3860    1.8680    0.4430 C   0  0  0  0  0  0  0  0  0  0  0  0
    0.6060    3.6140    0.6390 C   0  0  0  0  0  0  0  0  0  0  0  0
   -0.3240    3.9600    0.1810 H   0  0  0  0  0  0  0  0  0  0  0  0
    1.3650    4.4010    0.6330 H   0  0  0  0  0  0  0  0  0  0  0  0
    0.4090    3.2650    1.6560 H   0  0  0  0  0  0  0  0  0  0  0  0
    1.2880    2.8280   -1.6130 C   0  0  0  0  0  0  0  0  0  0  0  0
    0.3330    3.2220   -1.9710 H   0  0  0  0  0  0  0  0  0  0  0  0
    1.5470    1.9340   -2.1820 H   0  0  0  0  0  0  0  0  0  0  0  0
    2.0730    3.5840   -1.6860 H   0  0  0  0  0  0  0  0  0  0  0  0
    3.8490   -1.7180    0.3600 C   0  0  0  0  0  0  0  0  0  0  0  0
    5.1440    0.4390    0.0760 C   0  0  0  0  0  0  0  0  0  0  0  0
    3.8620   -0.2110    0.5870 C   0  0  1  0  0  0  0  0  0  0  0  0
    1.1190    2.4470   -0.1640 N   0  3  0  0  0  0  0  0  0  0  0  0
    0.3900    1.7220   -0.1220 H   0  0  0  0  0  0  0  0  0  0  0  0
    5.0690    1.1980   -1.0490 N   0  0  0  0  0  0  0  0  0  0  0  0
    3.8360   -0.0260    1.6710 H   0  0  0  0  0  0  0  0  0  0  0  0
    1.7040   -0.1640    0.3320 H   0  0  0  0  0  0  0  0  0  0  0  0
    2.5850    0.3440   -1.0960 H   0  0  0  0  0  0  0  0  0  0  0  0
    3.2090    2.5330    0.1660 H   0  0  0  0  0  0  0  0  0  0  0  0
    2.2620    1.8990    1.5310 H   0  0  0  0  0  0  0  0  0  0  0  0
  1  2  1  0  0  0  0
  1  7  1  0  0  0  0
  1 29  2  0  0  0  0
  3  4  1  0  0  0  0
  3  9  2  0  0  0  0
  3 29  1  0  0  0  0
  5  6  1  0  0  0  0
  5 11  2  0  0  0  0
  5 30  1  0  0  0  0
  7  8  1  0  0  0  0
  7 15  2  0  0  0  0
  9 10  1  0  0  0  0
  9 15  1  0  0  0  0
 11 12  1  0  0  0  0
 11 17  1  0  0  0  0
 13 14  1  0  0  0  0
 13 17  2  0  0  0  0
 13 34  1  0  0  0  0
 15 16  1  0  0  0  0
 17 18  1  0  0  0  0
 19 20  1  0  0  0  0
 19 31  1  0  0  0  0
 19 36  1  0  0  0  0
 19 37  1  0  0  0  0
 20 32  1  0  0  0  0
 20 38  1  0  0  0  0
 20 39  1  0  0  0  0
 21 22  1  0  0  0  0
 21 23  1  0  0  0  0
 21 24  1  0  0  0  0
 21 32  1  0  0  0  0
 25 26  1  0  0  0  0
 25 27  1  0  0  0  0
 25 28  1  0  0  0  0
 25 32  1  0  0  0  0
 29 31  1  0  0  0  0
 30 31  1  0  0  0  0
 30 34  2  0  0  0  0
 31 35  1  1  0  0  0
 32 33  1  0  0  0  0
M  CHG  1  32   1
M  END
>  <Compound name>
Pheniramine

>  <Activity>
10

>  <ABUNDANCE>
98.29% at pH 7.4

>  <SPLIT_SET>
External

$$$$
C32H60O10
 OpenBabel12201215033D

102102  0  0  0  0  0  0  0  0999 V2000
    6.7470   -5.4150    1.7470 C   0  0  0  0  0  0  0  0  0  0  0  0
    1.2530   -5.9860   -0.2940 C   0  0  0  0  0  0  0  0  0  0  0  0
    2.9020   -9.8090   -1.6460 C   0  0  0  0  0  0  0  0  0  0  0  0
    5.0440   -3.8130   -0.2410 C   0  0  0  0  0  0  0  0  0  0  0  0
    0.6670   -5.2790   -1.5090 C   0  0  0  0  0  0  0  0  0  0  0  0
    1.4780   -9.5870   -2.1440 C   0  0  0  0  0  0  0  0  0  0  0  0
    8.8850   -5.1470    0.7160 C   0  0  0  0  0  0  0  0  0  0  0  0
    4.3400   -2.4930   -0.5420 C   0  0  0  0  0  0  0  0  0  0  0  0
    9.2050   -3.6630    0.5350 C   0  0  0  0  0  0  0  0  0  0  0  0
    9.0290    1.1660    1.4660 C   0  0  0  0  0  0  0  0  0  0  0  0
    8.3480    1.1980    2.8340 C   0  0  0  0  0  0  0  0  0  0  0  0
    9.9690    2.3620    1.2870 C   0  0  0  0  0  0  0  0  0  0  0  0
    7.2920    0.1040    3.0360 C   0  0  0  0  0  0  0  0  0  0  0  0
   13.3810    9.4030   -1.2050 C   0  0  0  0  0  0  0  0  0  0  0  0
   12.3330    8.2980   -1.0370 C   0  0  0  0  0  0  0  0  0  0  0  0
   10.6530    2.3300   -0.0840 C   0  0  0  0  0  0  0  0  0  0  0  0
    7.8540   -1.3180    3.0620 C   0  0  0  0  0  0  0  0  0  0  0  0
   12.7880   10.8140   -1.1920 C   0  0  0  0  0  0  0  0  0  0  0  0
   11.6620    8.3010    0.3410 C   0  0  0  0  0  0  0  0  0  0  0  0
   11.6640    3.4650   -0.2760 C   0  0  0  0  0  0  0  0  0  0  0  0
   13.8600   11.8670   -1.4830 C   0  0  0  0  0  0  0  0  0  0  0  0
   10.6520    7.1620    0.5170 C   0  0  0  0  0  0  0  0  0  0  0  0
   13.2720   13.2780   -1.4670 C   0  0  0  0  0  0  0  0  0  0  0  0
   14.3330   14.3270   -1.7560 C   0  0  0  0  0  0  0  0  0  0  0  0
    7.3590   -1.6050    0.7010 O   0  0  0  0  0  0  0  0  0  0  0  0
    4.2690   -8.9430    1.1240 C   0  0  0  0  0  0  0  0  0  0  0  0
   -0.7470   -5.1700   -1.3930 O   0  0  0  0  0  0  0  0  0  0  0  0
    0.9560  -10.7980   -2.6750 O   0  0  0  0  0  0  0  0  0  0  0  0
    4.8150   -1.4380    0.2920 O   0  0  0  0  0  0  0  0  0  0  0  0
    8.0010   -1.9370    1.6890 C   0  0  0  0  0  0  0  0  0  0  0  0
    2.6710   -6.0470   -0.4180 O   0  0  0  0  0  0  0  0  0  0  0  0
    3.4580   -8.6010   -1.1330 O   0  0  0  0  0  0  0  0  0  0  0  0
    4.6690   -4.2550    1.0640 O   0  0  0  0  0  0  0  0  0  0  0  0
    7.4900   -5.4020    0.5280 O   0  0  0  0  0  0  0  0  0  0  0  0
    8.9170   -2.9440    1.7490 O   0  0  0  0  0  0  0  0  0  0  0  0
    4.7980   -6.7120    0.6440 C   0  0  1  0  0  0  0  0  0  0  0  0
    3.2760   -6.8820    0.5650 C   0  0  2  0  0  0  0  0  0  0  0  0
    3.1600   -8.3700    0.2520 C   0  0  2  0  0  0  0  0  0  0  0  0
    5.2270   -5.5030    1.4990 C   0  0  1  0  0  0  0  0  0  0  0  0
   11.0220    4.8220   -0.3160 C   0  0  0  0  0  0  0  0  0  0  0  0
   11.2980    5.8060    0.5540 C   0  0  0  0  0  0  0  0  0  0  0  0
    5.2880   -7.9310    1.2480 O   0  0  0  0  0  0  0  0  0  0  0  0
   -0.9240   -4.5180   -0.6930 H   0  0  0  0  0  0  0  0  0  0  0  0
    0.0630  -10.6020   -3.0080 H   0  0  0  0  0  0  0  0  0  0  0  0
    5.8010   -1.4880    0.3260 H   0  0  0  0  0  0  0  0  0  0  0  0
    5.2280   -6.6390   -0.3620 H   0  0  0  0  0  0  0  0  0  0  0  0
    2.8380   -6.6790    1.5520 H   0  0  0  0  0  0  0  0  0  0  0  0
    2.1750   -8.7740    0.5040 H   0  0  0  0  0  0  0  0  0  0  0  0
    4.7970   -5.6540    2.4980 H   0  0  0  0  0  0  0  0  0  0  0  0
    4.7260   -9.8460    0.7110 H   0  0  0  0  0  0  0  0  0  0  0  0
    3.9050   -9.1530    2.1350 H   0  0  0  0  0  0  0  0  0  0  0  0
    6.9550   -4.5030    2.3150 H   0  0  0  0  0  0  0  0  0  0  0  0
    7.0760   -6.2750    2.3410 H   0  0  0  0  0  0  0  0  0  0  0  0
    0.8180   -6.9880   -0.2150 H   0  0  0  0  0  0  0  0  0  0  0  0
    0.9900   -5.4410    0.6200 H   0  0  0  0  0  0  0  0  0  0  0  0
    2.9470  -10.6180   -0.9070 H   0  0  0  0  0  0  0  0  0  0  0  0
    3.5270  -10.1290   -2.4870 H   0  0  0  0  0  0  0  0  0  0  0  0
    4.7490   -4.5490   -0.9930 H   0  0  0  0  0  0  0  0  0  0  0  0
    6.1210   -3.6580   -0.2910 H   0  0  0  0  0  0  0  0  0  0  0  0
    0.8980   -5.8410   -2.4210 H   0  0  0  0  0  0  0  0  0  0  0  0
    1.0970   -4.2800   -1.6320 H   0  0  0  0  0  0  0  0  0  0  0  0
    0.8250   -9.2510   -1.3340 H   0  0  0  0  0  0  0  0  0  0  0  0
    1.4630   -8.8170   -2.9220 H   0  0  0  0  0  0  0  0  0  0  0  0
    9.4030   -5.7110   -0.0660 H   0  0  0  0  0  0  0  0  0  0  0  0
    9.2240   -5.5230    1.6890 H   0  0  0  0  0  0  0  0  0  0  0  0
    4.5110   -2.1990   -1.5810 H   0  0  0  0  0  0  0  0  0  0  0  0
    3.2620   -2.5820   -0.3740 H   0  0  0  0  0  0  0  0  0  0  0  0
   10.2790   -3.5440    0.3580 H   0  0  0  0  0  0  0  0  0  0  0  0
    8.6690   -3.2530   -0.3270 H   0  0  0  0  0  0  0  0  0  0  0  0
    9.6080    0.2430    1.3570 H   0  0  0  0  0  0  0  0  0  0  0  0
    8.2700    1.1770    0.6750 H   0  0  0  0  0  0  0  0  0  0  0  0
    9.1060    1.1240    3.6240 H   0  0  0  0  0  0  0  0  0  0  0  0
    7.8560    2.1700    2.9650 H   0  0  0  0  0  0  0  0  0  0  0  0
   10.7290    2.3520    2.0770 H   0  0  0  0  0  0  0  0  0  0  0  0
    9.3960    3.2910    1.3990 H   0  0  0  0  0  0  0  0  0  0  0  0
    6.8160    0.2920    4.0070 H   0  0  0  0  0  0  0  0  0  0  0  0
    6.5040    0.2060    2.2810 H   0  0  0  0  0  0  0  0  0  0  0  0
   13.8960    9.2410   -2.1600 H   0  0  0  0  0  0  0  0  0  0  0  0
   14.1400    9.3130   -0.4180 H   0  0  0  0  0  0  0  0  0  0  0  0
   12.8350    7.3370   -1.1980 H   0  0  0  0  0  0  0  0  0  0  0  0
   11.5710    8.3920   -1.8200 H   0  0  0  0  0  0  0  0  0  0  0  0
    9.8940    2.3680   -0.8760 H   0  0  0  0  0  0  0  0  0  0  0  0
   11.1810    1.3760   -0.1990 H   0  0  0  0  0  0  0  0  0  0  0  0
   11.9910   10.8850   -1.9420 H   0  0  0  0  0  0  0  0  0  0  0  0
   12.3370   11.0240   -0.2160 H   0  0  0  0  0  0  0  0  0  0  0  0
   12.4270    8.2460    1.1260 H   0  0  0  0  0  0  0  0  0  0  0  0
   11.1260    9.2460    0.4860 H   0  0  0  0  0  0  0  0  0  0  0  0
    8.8230   -1.3270    3.5740 H   0  0  0  0  0  0  0  0  0  0  0  0
    7.1680   -1.9660    3.6200 H   0  0  0  0  0  0  0  0  0  0  0  0
   12.4270    3.4140    0.5100 H   0  0  0  0  0  0  0  0  0  0  0  0
   12.1870    3.3120   -1.2280 H   0  0  0  0  0  0  0  0  0  0  0  0
   14.6590   11.7930   -0.7360 H   0  0  0  0  0  0  0  0  0  0  0  0
   14.3130   11.6700   -2.4630 H   0  0  0  0  0  0  0  0  0  0  0  0
   10.1230    7.3070    1.4670 H   0  0  0  0  0  0  0  0  0  0  0  0
    9.8950    7.2170   -0.2740 H   0  0  0  0  0  0  0  0  0  0  0  0
   12.8210   13.4820   -0.4890 H   0  0  0  0  0  0  0  0  0  0  0  0
   12.4740   13.3580   -2.2150 H   0  0  0  0  0  0  0  0  0  0  0  0
   10.2980    4.9930   -1.1100 H   0  0  0  0  0  0  0  0  0  0  0  0
   12.0180    5.6320    1.3500 H   0  0  0  0  0  0  0  0  0  0  0  0
   14.7810   14.1710   -2.7420 H   0  0  0  0  0  0  0  0  0  0  0  0
   15.1300   14.2960   -1.0060 H   0  0  0  0  0  0  0  0  0  0  0  0
   13.8910   15.3280   -1.7390 H   0  0  0  0  0  0  0  0  0  0  0  0
  1 34  1  0  0  0  0
  1 39  1  0  0  0  0
  1 52  1  0  0  0  0
  1 53  1  0  0  0  0
  2  5  1  0  0  0  0
  2 31  1  0  0  0  0
  2 54  1  0  0  0  0
  2 55  1  0  0  0  0
  3  6  1  0  0  0  0
  3 32  1  0  0  0  0
  3 56  1  0  0  0  0
  3 57  1  0  0  0  0
  4  8  1  0  0  0  0
  4 33  1  0  0  0  0
  4 58  1  0  0  0  0
  4 59  1  0  0  0  0
  5 27  1  0  0  0  0
  5 60  1  0  0  0  0
  5 61  1  0  0  0  0
  6 28  1  0  0  0  0
  6 62  1  0  0  0  0
  6 63  1  0  0  0  0
  7  9  1  0  0  0  0
  7 34  1  0  0  0  0
  7 64  1  0  0  0  0
  7 65  1  0  0  0  0
  8 29  1  0  0  0  0
  8 66  1  0  0  0  0
  8 67  1  0  0  0  0
  9 35  1  0  0  0  0
  9 68  1  0  0  0  0
  9 69  1  0  0  0  0
 10 11  1  0  0  0  0
 10 12  1  0  0  0  0
 10 70  1  0  0  0  0
 10 71  1  0  0  0  0
 11 13  1  0  0  0  0
 11 72  1  0  0  0  0
 11 73  1  0  0  0  0
 12 16  1  0  0  0  0
 12 74  1  0  0  0  0
 12 75  1  0  0  0  0
 13 17  1  0  0  0  0
 13 76  1  0  0  0  0
 13 77  1  0  0  0  0
 14 15  1  0  0  0  0
 14 18  1  0  0  0  0
 14 78  1  0  0  0  0
 14 79  1  0  0  0  0
 15 19  1  0  0  0  0
 15 80  1  0  0  0  0
 15 81  1  0  0  0  0
 16 20  1  0  0  0  0
 16 82  1  0  0  0  0
 16 83  1  0  0  0  0
 17 30  1  0  0  0  0
 17 88  1  0  0  0  0
 17 89  1  0  0  0  0
 18 21  1  0  0  0  0
 18 84  1  0  0  0  0
 18 85  1  0  0  0  0
 19 22  1  0  0  0  0
 19 86  1  0  0  0  0
 19 87  1  0  0  0  0
 20 40  1  0  0  0  0
 20 90  1  0  0  0  0
 20 91  1  0  0  0  0
 21 23  1  0  0  0  0
 21 92  1  0  0  0  0
 21 93  1  0  0  0  0
 22 41  1  0  0  0  0
 22 94  1  0  0  0  0
 22 95  1  0  0  0  0
 23 24  1  0  0  0  0
 23 96  1  0  0  0  0
 23 97  1  0  0  0  0
 24100  1  0  0  0  0
 24101  1  0  0  0  0
 24102  1  0  0  0  0
 25 30  2  0  0  0  0
 26 38  1  0  0  0  0
 26 42  1  0  0  0  0
 26 50  1  0  0  0  0
 26 51  1  0  0  0  0
 27 43  1  0  0  0  0
 28 44  1  0  0  0  0
 29 45  1  0  0  0  0
 30 35  1  0  0  0  0
 31 37  1  0  0  0  0
 32 38  1  0  0  0  0
 33 39  1  0  0  0  0
 36 37  1  0  0  0  0
 36 39  1  0  0  0  0
 36 42  1  0  0  0  0
 36 46  1  6  0  0  0
 37 38  1  0  0  0  0
 37 47  1  1  0  0  0
 38 48  1  1  0  0  0
 39 49  1  1  0  0  0
 40 41  2  0  0  0  0
 40 98  1  0  0  0  0
 41 99  1  0  0  0  0
M  END
>  <Compound name>
Polysorbate 80

>  <Activity>
10

>  <ABUNDANCE>
100% at pH 7.4

>  <SPLIT_SET>
External

$$$$
C15H13NO3
 OpenBabel12201215033D

 31 33  0  0  0  0  0  0  0  0999 V2000
    5.8690    0.2190   -0.4780 C   0  0  0  0  0  0  0  0  0  0  0  0
    6.0720    0.9890   -1.2230 H   0  0  0  0  0  0  0  0  0  0  0  0
    5.3450   -1.7530    1.4160 C   0  0  0  0  0  0  0  0  0  0  0  0
    5.1460   -2.5240    2.1560 H   0  0  0  0  0  0  0  0  0  0  0  0
    6.6470   -1.2750    1.2470 C   0  0  0  0  0  0  0  0  0  0  0  0
    7.4450   -1.6830    1.8620 H   0  0  0  0  0  0  0  0  0  0  0  0
    0.9350    0.2310   -1.3660 C   0  0  0  0  0  0  0  0  0  0  0  0
    0.9910    0.9880   -2.1440 H   0  0  0  0  0  0  0  0  0  0  0  0
   -0.3020   -0.2750   -0.9800 C   0  0  0  0  0  0  0  0  0  0  0  0
   -1.2180    0.0750   -1.4430 H   0  0  0  0  0  0  0  0  0  0  0  0
   -0.3300   -1.2400    0.0110 C   0  0  0  0  0  0  0  0  0  0  0  0
   -1.2700   -1.6670    0.3480 H   0  0  0  0  0  0  0  0  0  0  0  0
    8.4010    1.7260    0.6590 C   0  0  0  0  0  0  0  0  0  0  0  0
    8.0910    1.8050    1.7070 H   0  0  0  0  0  0  0  0  0  0  0  0
    7.7520    2.3880    0.0740 H   0  0  0  0  0  0  0  0  0  0  0  0
    9.4230    2.1130    0.5800 H   0  0  0  0  0  0  0  0  0  0  0  0
    6.9250   -0.2770    0.3030 C   0  0  0  0  0  0  0  0  0  0  0  0
    9.4440   -1.0140   -1.4730 O   0  0  0  0  0  0  0  0  0  0  0  0
    3.4420    0.2870   -1.1530 C   0  0  0  0  0  0  0  0  0  0  0  0
    3.6290    0.0170   -2.1990 H   0  0  0  0  0  0  0  0  0  0  0  0
    3.4330    1.3810   -1.0660 H   0  0  0  0  0  0  0  0  0  0  0  0
    8.7670    1.0950   -2.0230 O   0  5  0  0  0  0  0  0  0  0  0  0
    8.8900    0.1020   -1.2470 C   0  0  0  0  0  0  0  0  0  0  0  0
    4.5560   -0.2540   -0.3090 C   0  0  0  0  0  0  0  0  0  0  0  0
    4.3010   -1.2380    0.6470 C   0  0  0  0  0  0  0  0  0  0  0  0
    2.0990   -0.2380   -0.7500 C   0  0  0  0  0  0  0  0  0  0  0  0
    1.9680   -1.2120    0.2340 C   0  0  0  0  0  0  0  0  0  0  0  0
    8.3360    0.2750    0.1810 C   0  0  1  0  0  0  0  0  0  0  0  0
    9.0000   -0.3030    0.8390 H   0  0  0  0  0  0  0  0  0  0  0  0
    3.0500   -1.7490    0.8960 O   0  0  0  0  0  0  0  0  0  0  0  0
    0.7710   -1.7200    0.6260 N   0  0  0  0  0  0  0  0  0  0  0  0
  1  2  1  0  0  0  0
  1 17  1  0  0  0  0
  1 24  2  0  0  0  0
  3  4  1  0  0  0  0
  3  5  1  0  0  0  0
  3 25  2  0  0  0  0
  5  6  1  0  0  0  0
  5 17  2  0  0  0  0
  7  8  1  0  0  0  0
  7  9  2  0  0  0  0
  7 26  1  0  0  0  0
  9 10  1  0  0  0  0
  9 11  1  0  0  0  0
 11 12  1  0  0  0  0
 11 31  2  0  0  0  0
 13 14  1  0  0  0  0
 13 15  1  0  0  0  0
 13 16  1  0  0  0  0
 13 28  1  0  0  0  0
 17 28  1  0  0  0  0
 18 23  2  0  0  0  0
 19 20  1  0  0  0  0
 19 21  1  0  0  0  0
 19 24  1  0  0  0  0
 19 26  1  0  0  0  0
 22 23  1  0  0  0  0
 23 28  1  0  0  0  0
 24 25  1  0  0  0  0
 25 30  1  0  0  0  0
 26 27  2  0  0  0  0
 27 30  1  0  0  0  0
 27 31  1  0  0  0  0
 28 29  1  1  0  0  0
M  CHG  1  22  -1
M  END
>  <Compound name>
Pranoprofen

>  <Activity>
10

>  <ABUNDANCE>
99.9% at pH 7.4

>  <SPLIT_SET>
External

$$$$
C23H30ClN3O
 OpenBabel12201215033D

 60 62  0  0  0  0  0  0  0  0999 V2000
    6.8540   -1.6110   -0.4900 C   0  0  0  0  0  0  0  0  0  0  0  0
    3.0180   -3.8890    1.7780 C   0  0  0  0  0  0  0  0  0  0  0  0
    2.4440   -2.9760    1.9260 H   0  0  0  0  0  0  0  0  0  0  0  0
    8.0000   -4.1150   -0.7810 C   0  0  0  0  0  0  0  0  0  0  0  0
    8.4750   -5.0870   -0.8980 H   0  0  0  0  0  0  0  0  0  0  0  0
    4.4070   -6.2770    1.4230 C   0  0  0  0  0  0  0  0  0  0  0  0
    4.9350   -7.2190    1.2930 H   0  0  0  0  0  0  0  0  0  0  0  0
    2.4810   -5.0860    2.2570 C   0  0  0  0  0  0  0  0  0  0  0  0
    1.5190   -5.0780    2.7640 H   0  0  0  0  0  0  0  0  0  0  0  0
    8.6760   -2.9890   -1.2550 C   0  0  0  0  0  0  0  0  0  0  0  0
    9.6450   -3.1290   -1.7250 H   0  0  0  0  0  0  0  0  0  0  0  0
    3.7220    0.7900   -0.1410 C   0  0  0  0  0  0  0  0  0  0  0  0
    2.7440    1.3230    0.9160 C   0  0  0  0  0  0  0  0  0  0  0  0
    2.7870    0.6920    1.8110 H   0  0  0  0  0  0  0  0  0  0  0  0
    1.7180    1.2470    0.5410 H   0  0  0  0  0  0  0  0  0  0  0  0
    3.0410    2.7580    1.3640 C   0  0  0  0  0  0  0  0  0  0  0  0
    4.0430    2.7990    1.8000 H   0  0  0  0  0  0  0  0  0  0  0  0
    2.3220    3.0950    2.1200 H   0  0  0  0  0  0  0  0  0  0  0  0
    3.7540    5.0290    0.5550 C   0  0  0  0  0  0  0  0  0  0  0  0
    3.3920    5.8270   -0.1000 H   0  0  0  0  0  0  0  0  0  0  0  0
    3.5280    5.2930    1.5930 H   0  0  0  0  0  0  0  0  0  0  0  0
    1.5650    4.0600   -0.2160 C   0  0  0  0  0  0  0  0  0  0  0  0
    0.9620    3.1590   -0.0830 H   0  0  0  0  0  0  0  0  0  0  0  0
    1.1740    4.8440    0.4410 H   0  0  0  0  0  0  0  0  0  0  0  0
    2.2190   -1.2000   -0.7040 C   0  0  0  0  0  0  0  0  0  0  0  0
    1.7740   -0.6090   -1.5110 H   0  0  0  0  0  0  0  0  0  0  0  0
    1.5700   -1.1290    0.1750 H   0  0  0  0  0  0  0  0  0  0  0  0
    2.2200   -2.2490   -1.0190 H   0  0  0  0  0  0  0  0  0  0  0  0
    9.9220   -0.6010   -2.1520 C   0  0  0  0  0  0  0  0  0  0  0  0
    5.2410    4.8270    0.3200 C   0  0  0  0  0  0  0  0  0  0  0  0
    5.4410    4.5420   -0.7180 H   0  0  0  0  0  0  0  0  0  0  0  0
    5.6610    4.0550    0.9710 H   0  0  0  0  0  0  0  0  0  0  0  0
    5.7800    5.7580    0.5210 H   0  0  0  0  0  0  0  0  0  0  0  0
    1.5390    4.4650   -1.6800 C   0  0  0  0  0  0  0  0  0  0  0  0
    1.9450    3.6700   -2.3140 H   0  0  0  0  0  0  0  0  0  0  0  0
    2.1140    5.3760   -1.8670 H   0  0  0  0  0  0  0  0  0  0  0  0
    0.5080    4.6520   -1.9960 H   0  0  0  0  0  0  0  0  0  0  0  0
    4.8510   -2.6660    0.5940 C   0  0  0  0  0  0  0  0  0  0  0  0
    8.1070   -1.7290   -1.1060 C   0  0  0  0  0  0  0  0  0  0  0  0
    3.1780   -6.2740    2.0780 C   0  0  0  0  0  0  0  0  0  0  0  0
    8.6540   -0.5420   -1.5070 O   0  0  0  0  0  0  0  0  0  0  0  0
    3.6410   -0.7280   -0.4040 C   0  0  2  0  0  0  0  0  0  0  0  0
    2.5210   -7.7510    2.6640 Cl  0  0  0  0  0  0  0  0  0  0  0  0
    2.9910    3.7530    0.2170 N   0  3  0  0  0  0  0  0  0  0  0  0
    3.4680    3.3340   -0.5900 H   0  0  0  0  0  0  0  0  0  0  0  0
    4.1720   -1.4570    0.7430 N   0  0  0  0  0  0  0  0  0  0  0  0
    4.0150   -1.1170    1.6850 H   0  0  0  0  0  0  0  0  0  0  0  0
    6.1300   -2.7330   -0.0230 C   0  0  0  0  0  0  0  0  0  0  0  0
    4.2650   -3.8520    1.1120 C   0  0  0  0  0  0  0  0  0  0  0  0
    6.7450   -3.9910   -0.1640 C   0  0  0  0  0  0  0  0  0  0  0  0
    4.9470   -5.0750    0.9440 C   0  0  0  0  0  0  0  0  0  0  0  0
    6.1320   -5.0870    0.3110 N   0  3  0  0  0  0  0  0  0  0  0  0
    6.6040   -5.9830    0.1960 H   0  0  0  0  0  0  0  0  0  0  0  0
    6.4460   -0.6110   -0.3670 H   0  0  0  0  0  0  0  0  0  0  0  0
    4.2490   -0.9270   -1.2950 H   0  0  0  0  0  0  0  0  0  0  0  0
    4.7470    1.0490    0.1550 H   0  0  0  0  0  0  0  0  0  0  0  0
    3.5300    1.3020   -1.0910 H   0  0  0  0  0  0  0  0  0  0  0  0
    9.8650   -1.1780   -3.0810 H   0  0  0  0  0  0  0  0  0  0  0  0
   10.2120    0.4220   -2.4120 H   0  0  0  0  0  0  0  0  0  0  0  0
   10.6870   -1.0050   -1.4810 H   0  0  0  0  0  0  0  0  0  0  0  0
  1 39  1  0  0  0  0
  1 48  2  0  0  0  0
  1 54  1  0  0  0  0
  2  3  1  0  0  0  0
  2  8  2  0  0  0  0
  2 49  1  0  0  0  0
  4  5  1  0  0  0  0
  4 10  1  0  0  0  0
  4 50  2  0  0  0  0
  6  7  1  0  0  0  0
  6 40  2  0  0  0  0
  6 51  1  0  0  0  0
  8  9  1  0  0  0  0
  8 40  1  0  0  0  0
 10 11  1  0  0  0  0
 10 39  2  0  0  0  0
 12 13  1  0  0  0  0
 12 42  1  0  0  0  0
 12 56  1  0  0  0  0
 12 57  1  0  0  0  0
 13 14  1  0  0  0  0
 13 15  1  0  0  0  0
 13 16  1  0  0  0  0
 16 17  1  0  0  0  0
 16 18  1  0  0  0  0
 16 44  1  0  0  0  0
 19 20  1  0  0  0  0
 19 21  1  0  0  0  0
 19 30  1  0  0  0  0
 19 44  1  0  0  0  0
 22 23  1  0  0  0  0
 22 24  1  0  0  0  0
 22 34  1  0  0  0  0
 22 44  1  0  0  0  0
 25 26  1  0  0  0  0
 25 27  1  0  0  0  0
 25 28  1  0  0  0  0
 25 42  1  0  0  0  0
 29 41  1  0  0  0  0
 29 58  1  0  0  0  0
 29 59  1  0  0  0  0
 29 60  1  0  0  0  0
 30 31  1  0  0  0  0
 30 32  1  0  0  0  0
 30 33  1  0  0  0  0
 34 35  1  0  0  0  0
 34 36  1  0  0  0  0
 34 37  1  0  0  0  0
 38 46  1  0  0  0  0
 38 48  1  0  0  0  0
 38 49  2  0  0  0  0
 39 41  1  0  0  0  0
 40 43  1  0  0  0  0
 42 46  1  0  0  0  0
 42 55  1  6  0  0  0
 44 45  1  0  0  0  0
 46 47  1  0  0  0  0
 48 50  1  0  0  0  0
 49 51  1  0  0  0  0
 50 52  1  0  0  0  0
 51 52  2  0  0  0  0
 52 53  1  0  0  0  0
M  CHG  2  44   1  52   1
M  END
>  <Compound name>
Quinacrine

>  <Activity>
35

>  <ABUNDANCE>
73.63% at pH 7.4

>  <SPLIT_SET>
External

$$$$
C16H21N3
 OpenBabel12201215033D

 41 42  0  0  0  0  0  0  0  0999 V2000
    5.6570    2.8850   -0.0690 C   0  0  0  0  0  0  0  0  0  0  0  0
    4.7570    3.4690   -0.2180 H   0  0  0  0  0  0  0  0  0  0  0  0
    6.7660    3.5470    0.4640 C   0  0  0  0  0  0  0  0  0  0  0  0
    6.7070    4.6050    0.7070 H   0  0  0  0  0  0  0  0  0  0  0  0
    7.9500    1.5100    0.3460 C   0  0  0  0  0  0  0  0  0  0  0  0
    1.2620    0.0480   -0.5380 C   0  0  0  0  0  0  0  0  0  0  0  0
    1.1410   -0.2470   -1.5780 H   0  0  0  0  0  0  0  0  0  0  0  0
    2.4340    1.2490    1.2000 C   0  0  0  0  0  0  0  0  0  0  0  0
    3.2420    1.8960    1.5300 H   0  0  0  0  0  0  0  0  0  0  0  0
    7.9410    2.8480    0.6770 C   0  0  0  0  0  0  0  0  0  0  0  0
    8.8190    3.3320    1.0870 H   0  0  0  0  0  0  0  0  0  0  0  0
    0.3410   -0.4140    0.4040 C   0  0  0  0  0  0  0  0  0  0  0  0
   -0.4790   -1.0550    0.0940 H   0  0  0  0  0  0  0  0  0  0  0  0
    1.5120    0.7850    2.1400 C   0  0  0  0  0  0  0  0  0  0  0  0
    1.6070    1.0760    3.1830 H   0  0  0  0  0  0  0  0  0  0  0  0
    0.4670   -0.0460    1.7420 C   0  0  0  0  0  0  0  0  0  0  0  0
   -0.2530   -0.4030    2.4740 H   0  0  0  0  0  0  0  0  0  0  0  0
    3.3260    1.3700   -1.1710 C   0  0  0  0  0  0  0  0  0  0  0  0
    3.2970    2.4620   -1.2080 H   0  0  0  0  0  0  0  0  0  0  0  0
    3.0100    1.0590   -2.1750 H   0  0  0  0  0  0  0  0  0  0  0  0
    4.8820   -0.6020   -1.2230 C   0  0  0  0  0  0  0  0  0  0  0  0
    4.8680   -1.4690    0.0510 C   0  0  0  0  0  0  0  0  0  0  0  0
    6.9540   -2.8300   -0.3580 C   0  0  0  0  0  0  0  0  0  0  0  0
    7.3160   -3.8590   -0.2880 H   0  0  0  0  0  0  0  0  0  0  0  0
    7.4030   -2.2250    0.4340 H   0  0  0  0  0  0  0  0  0  0  0  0
    7.1720   -2.4160   -1.3450 H   0  0  0  0  0  0  0  0  0  0  0  0
    4.7480   -3.6910   -1.1670 C   0  0  0  0  0  0  0  0  0  0  0  0
    5.1410   -4.7090   -1.1010 H   0  0  0  0  0  0  0  0  0  0  0  0
    4.9290   -3.2720   -2.1600 H   0  0  0  0  0  0  0  0  0  0  0  0
    3.6830   -3.6840   -0.9250 H   0  0  0  0  0  0  0  0  0  0  0  0
    5.7260    1.5270   -0.3870 C   0  0  0  0  0  0  0  0  0  0  0  0
    2.3230    0.8810   -0.1500 C   0  0  0  0  0  0  0  0  0  0  0  0
    4.6550    0.8160   -0.9130 N   0  0  0  0  0  0  0  0  0  0  0  0
    5.4640   -2.8540   -0.1480 N   0  3  0  0  0  0  0  0  0  0  0  0
    5.3240   -3.3280    0.7530 H   0  0  0  0  0  0  0  0  0  0  0  0
    6.8850    0.8500   -0.1680 N   0  0  0  0  0  0  0  0  0  0  0  0
    5.8140   -0.7140   -1.7880 H   0  0  0  0  0  0  0  0  0  0  0  0
    4.0980   -0.9640   -1.9000 H   0  0  0  0  0  0  0  0  0  0  0  0
    5.4170   -1.0180    0.8830 H   0  0  0  0  0  0  0  0  0  0  0  0
    3.8400   -1.6290    0.3970 H   0  0  0  0  0  0  0  0  0  0  0  0
    8.8420    0.9070    0.4870 H   0  0  0  0  0  0  0  0  0  0  0  0
  1  2  1  0  0  0  0
  1  3  2  0  0  0  0
  1 31  1  0  0  0  0
  3  4  1  0  0  0  0
  3 10  1  0  0  0  0
  5 10  2  0  0  0  0
  5 36  1  0  0  0  0
  5 41  1  0  0  0  0
  6  7  1  0  0  0  0
  6 12  1  0  0  0  0
  6 32  2  0  0  0  0
  8  9  1  0  0  0  0
  8 14  2  0  0  0  0
  8 32  1  0  0  0  0
 10 11  1  0  0  0  0
 12 13  1  0  0  0  0
 12 16  2  0  0  0  0
 14 15  1  0  0  0  0
 14 16  1  0  0  0  0
 16 17  1  0  0  0  0
 18 19  1  0  0  0  0
 18 20  1  0  0  0  0
 18 32  1  0  0  0  0
 18 33  1  0  0  0  0
 21 22  1  0  0  0  0
 21 33  1  0  0  0  0
 21 37  1  0  0  0  0
 21 38  1  0  0  0  0
 22 34  1  0  0  0  0
 22 39  1  0  0  0  0
 22 40  1  0  0  0  0
 23 24  1  0  0  0  0
 23 25  1  0  0  0  0
 23 26  1  0  0  0  0
 23 34  1  0  0  0  0
 27 28  1  0  0  0  0
 27 29  1  0  0  0  0
 27 30  1  0  0  0  0
 27 34  1  0  0  0  0
 31 33  1  0  0  0  0
 31 36  2  0  0  0  0
 34 35  1  0  0  0  0
M  CHG  1  34   1
M  END
>  <Compound name>
Tripelennamine

>  <Activity>
35

>  <ABUNDANCE>
94.37% at pH 7.4

>  <SPLIT_SET>
External

$$$$
C19H22N2
 OpenBabel12201215033D

 44 46  0  0  0  0  0  0  0  0999 V2000
    5.2270   -1.1780    1.3260 C   0  0  0  0  0  0  0  0  0  0  0  0
    5.1800   -0.7280   -1.0480 C   0  0  0  0  0  0  0  0  0  0  0  0
    5.3130   -0.0530   -1.8910 H   0  0  0  0  0  0  0  0  0  0  0  0
    7.1700    2.8800   -0.5650 C   0  0  0  0  0  0  0  0  0  0  0  0
    6.3110    3.4310   -0.9340 H   0  0  0  0  0  0  0  0  0  0  0  0
    4.8760   -2.5070    1.0800 C   0  0  0  0  0  0  0  0  0  0  0  0
    4.7850   -3.1970    1.9160 H   0  0  0  0  0  0  0  0  0  0  0  0
    4.8290   -2.0570   -1.2920 C   0  0  0  0  0  0  0  0  0  0  0  0
    8.4560    3.3330   -0.8500 C   0  0  0  0  0  0  0  0  0  0  0  0
    8.6040    4.2400   -1.4300 H   0  0  0  0  0  0  0  0  0  0  0  0
    9.3130    1.4580    0.3350 C   0  0  0  0  0  0  0  0  0  0  0  0
   10.1350    0.8570    0.7130 H   0  0  0  0  0  0  0  0  0  0  0  0
    9.5500    2.6120   -0.3910 C   0  0  0  0  0  0  0  0  0  0  0  0
   10.5630    2.9390   -0.5980 H   0  0  0  0  0  0  0  0  0  0  0  0
    3.3640    1.6260    1.5100 C   0  0  0  0  0  0  0  0  0  0  0  0
    4.3220   -4.3900   -0.4950 C   0  0  0  0  0  0  0  0  0  0  0  0
    3.7460   -4.8160    0.3330 H   0  0  0  0  0  0  0  0  0  0  0  0
    5.2410   -4.9700   -0.6240 H   0  0  0  0  0  0  0  0  0  0  0  0
    3.7110   -4.4870   -1.3990 H   0  0  0  0  0  0  0  0  0  0  0  0
    5.3640   -0.2750    0.2650 C   0  0  0  0  0  0  0  0  0  0  0  0
    7.0210    1.7120    0.1820 C   0  0  0  0  0  0  0  0  0  0  0  0
    4.6570   -2.9520   -0.2290 C   0  0  0  0  0  0  0  0  0  0  0  0
    2.1750    2.0770   -0.7040 C   0  0  0  0  0  0  0  0  0  0  0  0
    2.5430    3.0750   -0.4460 H   0  0  0  0  0  0  0  0  0  0  0  0
    2.6990    1.6950   -1.5850 H   0  0  0  0  0  0  0  0  0  0  0  0
    1.1310    0.6030    0.9340 C   0  0  0  0  0  0  0  0  0  0  0  0
    1.2620   -0.4230    1.2890 H   0  0  0  0  0  0  0  0  0  0  0  0
    0.8020    1.2600    1.7460 H   0  0  0  0  0  0  0  0  0  0  0  0
    0.6650    2.0510   -0.8750 C   0  0  0  0  0  0  0  0  0  0  0  0
    0.2390    0.7220   -0.2820 C   0  0  0  0  0  0  0  0  0  0  0  0
    0.4390   -0.0930   -0.9870 H   0  0  0  0  0  0  0  0  0  0  0  0
   -0.8230    0.7000   -0.0230 H   0  0  0  0  0  0  0  0  0  0  0  0
    5.6850    1.1490    0.5080 C   0  0  0  0  0  0  0  0  0  0  0  0
    4.7570    1.9630    1.0650 C   0  0  0  0  0  0  0  0  0  0  0  0
    5.0330    2.9970    1.2770 H   0  0  0  0  0  0  0  0  0  0  0  0
    2.4610    1.1120    0.4280 N   0  3  0  0  0  0  0  0  0  0  0  0
    2.9320    0.2960    0.0140 H   0  0  0  0  0  0  0  0  0  0  0  0
    8.0790    0.9920    0.6280 N   0  0  0  0  0  0  0  0  0  0  0  0
    5.4080   -0.8580    2.3500 H   0  0  0  0  0  0  0  0  0  0  0  0
    3.3870    0.8720    2.3050 H   0  0  0  0  0  0  0  0  0  0  0  0
    2.8820    2.5210    1.9220 H   0  0  0  0  0  0  0  0  0  0  0  0
    4.7000   -2.3940   -2.3180 H   0  0  0  0  0  0  0  0  0  0  0  0
    0.3660    2.1590   -1.9210 H   0  0  0  0  0  0  0  0  0  0  0  0
    0.2130    2.8760   -0.3110 H   0  0  0  0  0  0  0  0  0  0  0  0
  1  6  1  0  0  0  0
  1 20  2  0  0  0  0
  1 39  1  0  0  0  0
  2  3  1  0  0  0  0
  2  8  2  0  0  0  0
  2 20  1  0  0  0  0
  4  5  1  0  0  0  0
  4  9  2  0  0  0  0
  4 21  1  0  0  0  0
  6  7  1  0  0  0  0
  6 22  2  0  0  0  0
  8 22  1  0  0  0  0
  8 42  1  0  0  0  0
  9 10  1  0  0  0  0
  9 13  1  0  0  0  0
 11 12  1  0  0  0  0
 11 13  2  0  0  0  0
 11 38  1  0  0  0  0
 13 14  1  0  0  0  0
 15 34  1  0  0  0  0
 15 36  1  0  0  0  0
 15 40  1  0  0  0  0
 15 41  1  0  0  0  0
 16 17  1  0  0  0  0
 16 18  1  0  0  0  0
 16 19  1  0  0  0  0
 16 22  1  0  0  0  0
 20 33  1  0  0  0  0
 21 33  1  0  0  0  0
 21 38  2  0  0  0  0
 23 24  1  0  0  0  0
 23 25  1  0  0  0  0
 23 29  1  0  0  0  0
 23 36  1  0  0  0  0
 26 27  1  0  0  0  0
 26 28  1  0  0  0  0
 26 30  1  0  0  0  0
 26 36  1  0  0  0  0
 29 30  1  0  0  0  0
 29 43  1  0  0  0  0
 29 44  1  0  0  0  0
 30 31  1  0  0  0  0
 30 32  1  0  0  0  0
 33 34  2  0  0  0  0
 34 35  1  0  0  0  0
 36 37  1  0  0  0  0
M  CHG  1  36   1
M  END
>  <Compound name>
Triprolidine

>  <Activity>
10

>  <ABUNDANCE>
98.3% at pH 7.4

>  <SPLIT_SET>
External

$$$$
